1                    U.S. GEOLOGICAL SURVEY MODULAR FINITE-DIFFERENCE GROUND-WATER MODEL
0hantush verification problem                                                    6/25/91  pfa                                    
   10 LAYERS        25 ROWS        25 COLUMNS
   1 STRESS PERIOD(S) IN SIMULATION
 MODEL TIME UNIT IS SECONDS
0I/O UNITS:
 ELEMENT OF IUNIT:  1  2  3  4  5  6  7  8  9 10 11 12 13 14 15 16 17 18 19 20 21 22 23 24
         I/O UNIT: 11 12  0  0  0  0  0  0 19  0  0 22  0  0  0  0  0  0  0  0  0  0  0  0
0BAS1 -- BASIC MODEL PACKAGE, VERSION 1, 9/1/87 INPUT READ FROM UNIT  1
 ARRAYS RHS AND BUFF WILL SHARE MEMORY.
 START HEAD WILL NOT BE SAVED -- DRAWDOWN CANNOT BE CALCULATED
    55715 ELEMENTS IN X ARRAY ARE USED BY BAS
    55715 ELEMENTS OF X ARRAY USED OUT OF  100000
0BCF1 -- BLOCK-CENTERED FLOW PACKAGE, VERSION 1, 9/1/87 INPUT READ FROM UNIT 11
 TRANSIENT SIMULATION
      LAYER  AQUIFER TYPE
      -------------------
         1         0
         2         0
         3         0
         4         0
         5         0
         6         0
         7         0
         8         0
         9         0
        10         0
     6260 ELEMENTS IN X ARRAY ARE USED BY BCF
    61975 ELEMENTS OF X ARRAY USED OUT OF  100000
0WEL1 -- WELL PACKAGE, VERSION 1, 9/1/87 INPUT READ FROM 12
 MAXIMUM OF    2 WELLS
        8 ELEMENTS IN X ARRAY ARE USED FOR WELLS
    61983 ELEMENTS OF X ARRAY USED OUT OF  100000
0SIP1 -- STRONGLY IMPLICIT PROCEDURE SOLUTION PACKAGE, VERSION 1, 9/1/87 INPUT READ FROM UNIT 19
 MAXIMUM OF  50 ITERATIONS ALLOWED FOR CLOSURE
  5 ITERATION PARAMETERS
    25205 ELEMENTS IN X ARRAY ARE USED BY SIP
    87188 ELEMENTS OF X ARRAY USED OUT OF  100000
1hantush verification problem                                                    6/25/91  pfa                                    
0                                                              BOUNDARY ARRAY =             -1 FOR LAYER  1
0                                                              BOUNDARY ARRAY =              1 FOR LAYER  2
0                                                              BOUNDARY ARRAY =              1 FOR LAYER  3
0                                                              BOUNDARY ARRAY =              1 FOR LAYER  4
0                                                              BOUNDARY ARRAY =              1 FOR LAYER  5
0                                                              BOUNDARY ARRAY =              1 FOR LAYER  6
0                                                              BOUNDARY ARRAY =              1 FOR LAYER  7
0                                                              BOUNDARY ARRAY =              1 FOR LAYER  8
0                                                              BOUNDARY ARRAY =              1 FOR LAYER  9
0                                                              BOUNDARY ARRAY =              1 FOR LAYER 10
0AQUIFER HEAD WILL BE SET TO  999.00     AT ALL NO-FLOW NODES (IBOUND=0).
0                                                                INITIAL HEAD =   .0000000     FOR LAYER  1
0                                                                INITIAL HEAD =   .0000000     FOR LAYER  2
0                                                                INITIAL HEAD =   .0000000     FOR LAYER  3
0                                                                INITIAL HEAD =   .0000000     FOR LAYER  4
0                                                                INITIAL HEAD =   .0000000     FOR LAYER  5
0                                                                INITIAL HEAD =   .0000000     FOR LAYER  6
0                                                                INITIAL HEAD =   .0000000     FOR LAYER  7
0                                                                INITIAL HEAD =   .0000000     FOR LAYER  8
0                                                                INITIAL HEAD =   .0000000     FOR LAYER  9
0                                                                INITIAL HEAD =   .0000000     FOR LAYER 10
0HEAD PRINT FORMAT IS FORMAT NUMBER  -4    DRAWDOWN PRINT FORMAT IS FORMAT NUMBER   0
0HEADS WILL BE SAVED ON UNIT  0    DRAWDOWNS WILL BE SAVED ON UNIT  0
0OUTPUT CONTROL IS SPECIFIED EVERY TIME STEP
0                                                    COLUMN TO ROW ANISOTROPY =   1.000000    
0


                                                  DELR WILL BE READ ON UNIT 11 USING FORMAT: (7G11.4)            
                              -------------------------------------------------------------------------------

   1.0000       1.5000       2.0000       3.0000       5.0000       8.0000       12.000       18.000       25.000       25.000    
   34.800       46.200       69.000       100.00       150.00       200.00       250.00       250.00       250.00       250.00    
   250.00       250.00       250.00       250.00       300.00    
0


                                                  DELC WILL BE READ ON UNIT 11 USING FORMAT: (7G11.4)            
                              -------------------------------------------------------------------------------

   1.0000       1.5000       2.0000       3.0000       5.0000       8.0000       12.000       18.000       25.000       25.000    
   34.800       46.200       69.000       100.00       150.00       200.00       250.00       250.00       250.00       250.00    
   250.00       250.00       250.00       250.00       300.00    
0                                                        PRIMARY STORAGE COEF =   .2000000E-03 FOR LAYER  1
0                                                        TRANSMIS. ALONG ROWS =   .2000000E-02 FOR LAYER  1
0                                                    VERT HYD COND /THICKNESS =   .1427000E-05 FOR LAYER  1
0                                                        PRIMARY STORAGE COEF =   .2240000E-01 FOR LAYER  2
0                                                        TRANSMIS. ALONG ROWS =   .1400000E-03 FOR LAYER  2
0                                                    VERT HYD COND /THICKNESS =   .7692000E-06 FOR LAYER  2
0                                                        PRIMARY STORAGE COEF =   .1920000E-01 FOR LAYER  3
0                                                        TRANSMIS. ALONG ROWS =   .1200000E-03 FOR LAYER  3
0                                                    VERT HYD COND /THICKNESS =   .7407000E-06 FOR LAYER  3
0                                                        PRIMARY STORAGE COEF =   .1440000E-01 FOR LAYER  4
0                                                        TRANSMIS. ALONG ROWS =   .9000000E-04 FOR LAYER  4
0                                                    VERT HYD COND /THICKNESS =   .1333000E-05 FOR LAYER  4
0                                                        PRIMARY STORAGE COEF =   .9600000E-02 FOR LAYER  5
0                                                        TRANSMIS. ALONG ROWS =   .6000000E-04 FOR LAYER  5
0                                                    VERT HYD COND /THICKNESS =   .2000000E-05 FOR LAYER  5
0                                                        PRIMARY STORAGE COEF =   .6400000E-02 FOR LAYER  6
0                                                        TRANSMIS. ALONG ROWS =   .4000000E-04 FOR LAYER  6
0                                                    VERT HYD COND /THICKNESS =   .2857000E-05 FOR LAYER  6
0                                                        PRIMARY STORAGE COEF =   .4800000E-02 FOR LAYER  7
0                                                        TRANSMIS. ALONG ROWS =   .3000000E-04 FOR LAYER  7
0                                                    VERT HYD COND /THICKNESS =   .4000000E-05 FOR LAYER  7
0                                                        PRIMARY STORAGE COEF =   .3200000E-02 FOR LAYER  8
0                                                        TRANSMIS. ALONG ROWS =   .2000000E-04 FOR LAYER  8
0                                                    VERT HYD COND /THICKNESS =   .9900000E-05 FOR LAYER  8
0                                                        PRIMARY STORAGE COEF =   .2000000E-03 FOR LAYER  9
0                                                        TRANSMIS. ALONG ROWS =   .2000000E-02 FOR LAYER  9
0                                                    VERT HYD COND /THICKNESS =   .4000000E-04 FOR LAYER  9
0                                                        PRIMARY STORAGE COEF =   .4800000E-02 FOR LAYER 10
0                                                        TRANSMIS. ALONG ROWS =   .4800000E-01 FOR LAYER 10
0


                                                         SOLUTION BY THE STRONGLY IMPLICIT PROCEDURE
                                                         -------------------------------------------
0                                               MAXIMUM ITERATIONS ALLOWED FOR CLOSURE =       50
                                                                ACCELERATION PARAMETER =     1.0000    
                                                     HEAD CHANGE CRITERION FOR CLOSURE =     .10000E-02
                                                     SIP HEAD CHANGE PRINTOUT INTERVAL =        1
0                                                    CALCULATE ITERATION PARAMETERS FROM MODEL CALCULATED WSEED
1                                                   STRESS PERIOD NO.   1, LENGTH =   787900.0    
                                                    ----------------------------------------------

                                                    NUMBER OF TIME STEPS =    30

                                                     MULTIPLIER FOR DELT =     1.414

                                                  INITIAL TIME STEP SIZE =   10.00005    
0             2 WELLS
                                                LAYER    ROW    COL    STRESS RATE   WELL NO.
                                                ---------------------------------------------
                                                 10       1      1     -1.5079           1
                                                  9       1      1     -.62830E-01       2
0AVERAGE SEED =  .00009099
 MINIMUM SEED =  .00000007
0
    5 ITERATION PARAMETERS CALCULATED FROM AVERAGE SEED:

             .0000000E+00   .9023319E+00   .9904609E+00   .9990683E+00   .9999090E+00
0
    14 ITERATIONS FOR TIME STEP   1 IN STRESS PERIOD  1
0MAXIMUM HEAD CHANGE FOR EACH ITERATION:
0 HEAD CHANGE LAYER,ROW,COL HEAD CHANGE LAYER,ROW,COL HEAD CHANGE LAYER,ROW,COL HEAD CHANGE LAYER,ROW,COL HEAD CHANGE LAYER,ROW,COL
 ------------------------------------------------------------------------------------------------------------------------------------
   -32.41     ( 10,  1,  1)  -11.64     ( 10,  1,  1)  -13.53     ( 10,  2,  1)   1.710     ( 10,  4,  4)  -.9566     ( 10,  3,  1)
   -.1106     ( 10,  1,  2)  -.1545     ( 10,  1,  1)   .1510E-01 ( 10,  4,  4)   .1103E-01 ( 10,  1,  1)  -.1139E-01 ( 10,  1,  1)
   -.2917E-02 ( 10,  4,  1)  -.2405E-02 ( 10,  3,  3)  -.3241E-02 ( 10,  1,  1)   .4583E-03 ( 10,  1,  1)
0
0HEAD/DRAWDOWN PRINTOUT FLAG = 1     TOTAL BUDGET PRINTOUT FLAG = 1     CELL-BY-CELL FLOW TERM FLAG = 0
0OUTPUT FLAGS FOR EACH LAYER:
          HEAD    DRAWDOWN  HEAD  DRAWDOWN
 LAYER  PRINTOUT  PRINTOUT  SAVE    SAVE
 -----------------------------------------
    1       0         0       0       0
    2       0         0       0       0
    3       0         0       0       0
    4       0         0       0       0
    5       0         0       0       0
    6       0         0       0       0
    7       0         0       0       0
    8       0         0       0       0
    9       1         0       0       0
   10       1         0       0       0
1                      HEAD IN LAYER  9 AT END OF TIME STEP  1 IN STRESS PERIOD  1
           -----------------------------------------------------------------------

           1       2       3       4       5       6       7       8       9      10      11      12      13      14      15
 ................................................................................................................................
0  1   -54.95  -35.79  -23.28  -14.35   -7.50   -3.02    -.88    -.17    -.02    -.00     .00     .00     .00     .00     .00
0  2   -35.79  -29.59  -21.42  -13.81   -7.35   -2.99    -.88    -.17    -.02    -.00     .00     .00     .00     .00     .00
0  3   -23.28  -21.42  -17.41  -12.24   -6.89   -2.88    -.86    -.16    -.02    -.00     .00     .00     .00     .00     .00
0  4   -14.35  -13.81  -12.24   -9.53   -5.90   -2.63    -.81    -.16    -.02    -.00     .00     .00     .00     .00     .00
0  5    -7.50   -7.35   -6.89   -5.90   -4.16   -2.10    -.70    -.14    -.02    -.00     .00     .00     .00     .00     .00
0  6    -3.02   -2.99   -2.88   -2.63   -2.10   -1.25    -.49    -.11    -.01    -.00     .00     .00     .00     .00     .00
0  7     -.88    -.88    -.86    -.81    -.70    -.49    -.23    -.06    -.01    -.00     .00     .00     .00     .00     .00
0  8     -.17    -.17    -.16    -.16    -.14    -.11    -.06    -.02    -.00     .00     .00     .00     .00     .00     .00
0  9     -.02    -.02    -.02    -.02    -.02    -.01    -.01    -.00     .00     .00     .00     .00     .00     .00     .00
0 10     -.00    -.00    -.00    -.00    -.00    -.00    -.00     .00     .00     .00     .00     .00     .00     .00     .00
0 11      .00     .00     .00     .00     .00     .00     .00     .00     .00     .00     .00     .00     .00     .00     .00
0 12      .00     .00     .00     .00     .00     .00     .00     .00     .00     .00     .00     .00     .00     .00     .00
0 13      .00     .00     .00     .00     .00     .00     .00     .00     .00     .00     .00     .00     .00     .00     .00
0 14      .00     .00     .00     .00     .00     .00     .00     .00     .00     .00     .00     .00     .00     .00     .00
0 15      .00     .00     .00     .00     .00     .00     .00     .00     .00     .00     .00     .00     .00     .00     .00
0 16      .00     .00     .00     .00     .00     .00     .00     .00     .00     .00     .00     .00     .00     .00     .00
0 17      .00     .00     .00     .00     .00     .00     .00     .00     .00     .00     .00     .00     .00     .00     .00
0 18      .00     .00     .00     .00     .00     .00     .00     .00     .00     .00     .00     .00     .00     .00     .00
0 19      .00     .00     .00     .00     .00     .00     .00     .00     .00     .00     .00     .00     .00     .00     .00
0 20      .00     .00     .00     .00     .00     .00     .00     .00     .00     .00     .00     .00     .00     .00     .00
0 21      .00     .00     .00     .00     .00     .00     .00     .00     .00     .00     .00     .00     .00     .00     .00
0 22      .00     .00     .00     .00     .00     .00     .00     .00     .00     .00     .00     .00     .00     .00     .00
0 23      .00     .00     .00     .00     .00     .00     .00     .00     .00     .00     .00     .00     .00     .00     .00
0 24      .00     .00     .00     .00     .00     .00     .00     .00     .00     .00     .00     .00     .00     .00     .00
0 25      .00     .00     .00     .00     .00     .00     .00     .00     .00     .00     .00     .00     .00     .00     .00
1                      HEAD IN LAYER  9 AT END OF TIME STEP  1 IN STRESS PERIOD  1
           -----------------------------------------------------------------------

          16      17      18      19      20      21      22      23      24      25
 ........................................................................................
0  1      .00     .00     .00     .00     .00     .00     .00     .00     .00     .00
0  2      .00     .00     .00     .00     .00     .00     .00     .00     .00     .00
0  3      .00     .00     .00     .00     .00     .00     .00     .00     .00     .00
0  4      .00     .00     .00     .00     .00     .00     .00     .00     .00     .00
0  5      .00     .00     .00     .00     .00     .00     .00     .00     .00     .00
0  6      .00     .00     .00     .00     .00     .00     .00     .00     .00     .00
0  7      .00     .00     .00     .00     .00     .00     .00     .00     .00     .00
0  8      .00     .00     .00     .00     .00     .00     .00     .00     .00     .00
0  9      .00     .00     .00     .00     .00     .00     .00     .00     .00     .00
0 10      .00     .00     .00     .00     .00     .00     .00     .00     .00     .00
0 11      .00     .00     .00     .00     .00     .00     .00     .00     .00     .00
0 12      .00     .00     .00     .00     .00     .00     .00     .00     .00     .00
0 13      .00     .00     .00     .00     .00     .00     .00     .00     .00     .00
0 14      .00     .00     .00     .00     .00     .00     .00     .00     .00     .00
0 15      .00     .00     .00     .00     .00     .00     .00     .00     .00     .00
0 16      .00     .00     .00     .00     .00     .00     .00     .00     .00     .00
0 17      .00     .00     .00     .00     .00     .00     .00     .00     .00     .00
0 18      .00     .00     .00     .00     .00     .00     .00     .00     .00     .00
0 19      .00     .00     .00     .00     .00     .00     .00     .00     .00     .00
0 20      .00     .00     .00     .00     .00     .00     .00     .00     .00     .00
0 21      .00     .00     .00     .00     .00     .00     .00     .00     .00     .00
0 22      .00     .00     .00     .00     .00     .00     .00     .00     .00     .00
0 23      .00     .00     .00     .00     .00     .00     .00     .00     .00     .00
0 24      .00     .00     .00     .00     .00     .00     .00     .00     .00     .00
0 25      .00     .00     .00     .00     .00     .00     .00     .00     .00     .00
1                      HEAD IN LAYER 10 AT END OF TIME STEP  1 IN STRESS PERIOD  1
           -----------------------------------------------------------------------

           1       2       3       4       5       6       7       8       9      10      11      12      13      14      15
 ................................................................................................................................
0  1   -57.35  -38.07  -25.31  -16.00   -8.61   -3.58   -1.07    -.20    -.02    -.00     .00     .00     .00     .00     .00
0  2   -38.07  -31.78  -23.39  -15.42   -8.45   -3.54   -1.06    -.20    -.02    -.00     .00     .00     .00     .00     .00
0  3   -25.31  -23.39  -19.22  -13.75   -7.93   -3.42   -1.04    -.20    -.02    -.00     .00     .00     .00     .00     .00
0  4   -16.00  -15.42  -13.75  -10.84   -6.84   -3.13    -.98    -.19    -.02    -.00     .00     .00     .00     .00     .00
0  5    -8.61   -8.45   -7.93   -6.84   -4.88   -2.51    -.85    -.18    -.02    -.00     .00     .00     .00     .00     .00
0  6    -3.58   -3.54   -3.42   -3.13   -2.51   -1.51    -.60    -.14    -.02    -.00     .00     .00     .00     .00     .00
0  7    -1.07   -1.06   -1.04    -.98    -.85    -.60    -.29    -.08    -.01    -.00     .00     .00     .00     .00     .00
0  8     -.20    -.20    -.20    -.19    -.18    -.14    -.08    -.03    -.00     .00     .00     .00     .00     .00     .00
0  9     -.02    -.02    -.02    -.02    -.02    -.02    -.01    -.00    -.00     .00     .00     .00     .00     .00     .00
0 10     -.00    -.00    -.00    -.00    -.00    -.00    -.00     .00     .00     .00     .00     .00     .00     .00     .00
0 11      .00     .00     .00     .00     .00     .00     .00     .00     .00     .00     .00     .00     .00     .00     .00
0 12      .00     .00     .00     .00     .00     .00     .00     .00     .00     .00     .00     .00     .00     .00     .00
0 13      .00     .00     .00     .00     .00     .00     .00     .00     .00     .00     .00     .00     .00     .00     .00
0 14      .00     .00     .00     .00     .00     .00     .00     .00     .00     .00     .00     .00     .00     .00     .00
0 15      .00     .00     .00     .00     .00     .00     .00     .00     .00     .00     .00     .00     .00     .00     .00
0 16      .00     .00     .00     .00     .00     .00     .00     .00     .00     .00     .00     .00     .00     .00     .00
0 17      .00     .00     .00     .00     .00     .00     .00     .00     .00     .00     .00     .00     .00     .00     .00
0 18      .00     .00     .00     .00     .00     .00     .00     .00     .00     .00     .00     .00     .00     .00     .00
0 19      .00     .00     .00     .00     .00     .00     .00     .00     .00     .00     .00     .00     .00     .00     .00
0 20      .00     .00     .00     .00     .00     .00     .00     .00     .00     .00     .00     .00     .00     .00     .00
0 21      .00     .00     .00     .00     .00     .00     .00     .00     .00     .00     .00     .00     .00     .00     .00
0 22      .00     .00     .00     .00     .00     .00     .00     .00     .00     .00     .00     .00     .00     .00     .00
0 23      .00     .00     .00     .00     .00     .00     .00     .00     .00     .00     .00     .00     .00     .00     .00
0 24      .00     .00     .00     .00     .00     .00     .00     .00     .00     .00     .00     .00     .00     .00     .00
0 25      .00     .00     .00     .00     .00     .00     .00     .00     .00     .00     .00     .00     .00     .00     .00
1                      HEAD IN LAYER 10 AT END OF TIME STEP  1 IN STRESS PERIOD  1
           -----------------------------------------------------------------------

          16      17      18      19      20      21      22      23      24      25
 ........................................................................................
0  1      .00     .00     .00     .00     .00     .00     .00     .00     .00     .00
0  2      .00     .00     .00     .00     .00     .00     .00     .00     .00     .00
0  3      .00     .00     .00     .00     .00     .00     .00     .00     .00     .00
0  4      .00     .00     .00     .00     .00     .00     .00     .00     .00     .00
0  5      .00     .00     .00     .00     .00     .00     .00     .00     .00     .00
0  6      .00     .00     .00     .00     .00     .00     .00     .00     .00     .00
0  7      .00     .00     .00     .00     .00     .00     .00     .00     .00     .00
0  8      .00     .00     .00     .00     .00     .00     .00     .00     .00     .00
0  9      .00     .00     .00     .00     .00     .00     .00     .00     .00     .00
0 10      .00     .00     .00     .00     .00     .00     .00     .00     .00     .00
0 11      .00     .00     .00     .00     .00     .00     .00     .00     .00     .00
0 12      .00     .00     .00     .00     .00     .00     .00     .00     .00     .00
0 13      .00     .00     .00     .00     .00     .00     .00     .00     .00     .00
0 14      .00     .00     .00     .00     .00     .00     .00     .00     .00     .00
0 15      .00     .00     .00     .00     .00     .00     .00     .00     .00     .00
0 16      .00     .00     .00     .00     .00     .00     .00     .00     .00     .00
0 17      .00     .00     .00     .00     .00     .00     .00     .00     .00     .00
0 18      .00     .00     .00     .00     .00     .00     .00     .00     .00     .00
0 19      .00     .00     .00     .00     .00     .00     .00     .00     .00     .00
0 20      .00     .00     .00     .00     .00     .00     .00     .00     .00     .00
0 21      .00     .00     .00     .00     .00     .00     .00     .00     .00     .00
0 22      .00     .00     .00     .00     .00     .00     .00     .00     .00     .00
0 23      .00     .00     .00     .00     .00     .00     .00     .00     .00     .00
0 24      .00     .00     .00     .00     .00     .00     .00     .00     .00     .00
0 25      .00     .00     .00     .00     .00     .00     .00     .00     .00     .00
0


                              VOLUMETRIC BUDGET FOR ENTIRE MODEL AT END OF TIME STEP  1 IN STRESS PERIOD  1
                              -----------------------------------------------------------------------------
0                   CUMULATIVE VOLUMES      L**3                                     RATES FOR THIS TIME STEP      L**3/T
                    ------------------                                               ------------------------

                          IN:                                                                    IN:
                          ---                                                                    ---
                            STORAGE =    15.708                                                    STORAGE =    1.5708    
                      CONSTANT HEAD =    .10508E-19                                          CONSTANT HEAD =    .10508E-20
                              WELLS =    .00000                                                      WELLS =    .00000    
0                          TOTAL IN =    15.708                                                   TOTAL IN =    1.5708    
0                        OUT:                                                                   OUT:
                         ----                                                                   ----
                            STORAGE =    .00000                                                    STORAGE =    .00000    
                      CONSTANT HEAD =    .00000                                              CONSTANT HEAD =    .00000    
                              WELLS =    15.708                                                      WELLS =    1.5707    
0                         TOTAL OUT =    15.708                                                  TOTAL OUT =    1.5707    
0                          IN - OUT =    .30518E-03                                               IN - OUT =    .30518E-04
0               PERCENT DISCREPANCY =                 .00                              PERCENT DISCREPANCY =                 .00



0


          TIME SUMMARY AT END OF TIME STEP  1 IN STRESS PERIOD  1
                               SECONDS        MINUTES         HOURS          DAYS           YEARS
                           ---------------------------------------------------------------------------
      TIME STEP LENGTH         10.0001        .166668        .277779E-02    .115741E-03    .316882E-06
    STRESS PERIOD TIME         10.0001        .166668        .277779E-02    .115741E-03    .316882E-06
 TOTAL SIMULATION TIME         10.0001        .166668        .277779E-02    .115741E-03    .316882E-06
1
    11 ITERATIONS FOR TIME STEP   2 IN STRESS PERIOD  1
0MAXIMUM HEAD CHANGE FOR EACH ITERATION:
0 HEAD CHANGE LAYER,ROW,COL HEAD CHANGE LAYER,ROW,COL HEAD CHANGE LAYER,ROW,COL HEAD CHANGE LAYER,ROW,COL HEAD CHANGE LAYER,ROW,COL
 ------------------------------------------------------------------------------------------------------------------------------------
   -2.095     (  8,  1,  1)  -3.906     ( 10,  1,  2)  -6.930     ( 10,  1,  1)   .8121     ( 10,  4,  3)   .7173E-01 ( 10,  6,  5)
   -.1685E-01 ( 10,  1,  5)  -.3097E-01 (  9,  1,  1)  -.1419E-01 ( 10,  1,  1)  -.6273E-02 ( 10,  4,  1)  -.1570E-02 ( 10,  1,  1)
   -.5507E-03 ( 10,  4,  1)
0
0HEAD/DRAWDOWN PRINTOUT FLAG = 1     TOTAL BUDGET PRINTOUT FLAG = 1     CELL-BY-CELL FLOW TERM FLAG = 0
 REUSING PREVIOUS VALUES OF IOFLG
1                      HEAD IN LAYER  9 AT END OF TIME STEP  2 IN STRESS PERIOD  1
           -----------------------------------------------------------------------

           1       2       3       4       5       6       7       8       9      10      11      12      13      14      15
 ................................................................................................................................
0  1   -65.26  -45.81  -32.63  -22.58  -13.91   -7.07   -2.76    -.74    -.12    -.02    -.00     .00     .00     .00     .00
0  2   -45.81  -39.38  -30.61  -21.93  -13.72   -7.02   -2.75    -.73    -.12    -.02    -.00     .00     .00     .00     .00
0  3   -32.63  -30.61  -26.14  -20.04  -13.07   -6.83   -2.71    -.73    -.12    -.02    -.00     .00     .00     .00     .00
0  4   -22.58  -21.93  -20.04  -16.64  -11.66   -6.39   -2.60    -.71    -.12    -.02    -.00     .00     .00     .00     .00
0  5   -13.91  -13.72  -13.07  -11.66   -9.01   -5.41   -2.34    -.66    -.12    -.02    -.00     .00     .00     .00     .00
0  6    -7.07   -7.02   -6.83   -6.39   -5.41   -3.69   -1.79    -.55    -.10    -.02    -.00     .00     .00     .00     .00
0  7    -2.76   -2.75   -2.71   -2.60   -2.34   -1.79   -1.01    -.36    -.07    -.01    -.00     .00     .00     .00     .00
0  8     -.74    -.73    -.73    -.71    -.66    -.55    -.36    -.15    -.04    -.01     .00     .00     .00     .00     .00
0  9     -.12    -.12    -.12    -.12    -.12    -.10    -.07    -.04    -.01    -.00     .00     .00     .00     .00     .00
0 10     -.02    -.02    -.02    -.02    -.02    -.02    -.01    -.01    -.00     .00     .00     .00     .00     .00     .00
0 11     -.00    -.00    -.00    -.00    -.00    -.00    -.00     .00     .00     .00     .00     .00     .00     .00     .00
0 12      .00     .00     .00     .00     .00     .00     .00     .00     .00     .00     .00     .00     .00     .00     .00
0 13      .00     .00     .00     .00     .00     .00     .00     .00     .00     .00     .00     .00     .00     .00     .00
0 14      .00     .00     .00     .00     .00     .00     .00     .00     .00     .00     .00     .00     .00     .00     .00
0 15      .00     .00     .00     .00     .00     .00     .00     .00     .00     .00     .00     .00     .00     .00     .00
0 16      .00     .00     .00     .00     .00     .00     .00     .00     .00     .00     .00     .00     .00     .00     .00
0 17      .00     .00     .00     .00     .00     .00     .00     .00     .00     .00     .00     .00     .00     .00     .00
0 18      .00     .00     .00     .00     .00     .00     .00     .00     .00     .00     .00     .00     .00     .00     .00
0 19      .00     .00     .00     .00     .00     .00     .00     .00     .00     .00     .00     .00     .00     .00     .00
0 20      .00     .00     .00     .00     .00     .00     .00     .00     .00     .00     .00     .00     .00     .00     .00
0 21      .00     .00     .00     .00     .00     .00     .00     .00     .00     .00     .00     .00     .00     .00     .00
0 22      .00     .00     .00     .00     .00     .00     .00     .00     .00     .00     .00     .00     .00     .00     .00
0 23      .00     .00     .00     .00     .00     .00     .00     .00     .00     .00     .00     .00     .00     .00     .00
0 24      .00     .00     .00     .00     .00     .00     .00     .00     .00     .00     .00     .00     .00     .00     .00
0 25      .00     .00     .00     .00     .00     .00     .00     .00     .00     .00     .00     .00     .00     .00     .00
1                      HEAD IN LAYER  9 AT END OF TIME STEP  2 IN STRESS PERIOD  1
           -----------------------------------------------------------------------

          16      17      18      19      20      21      22      23      24      25
 ........................................................................................
0  1      .00     .00     .00     .00     .00     .00     .00     .00     .00     .00
0  2      .00     .00     .00     .00     .00     .00     .00     .00     .00     .00
0  3      .00     .00     .00     .00     .00     .00     .00     .00     .00     .00
0  4      .00     .00     .00     .00     .00     .00     .00     .00     .00     .00
0  5      .00     .00     .00     .00     .00     .00     .00     .00     .00     .00
0  6      .00     .00     .00     .00     .00     .00     .00     .00     .00     .00
0  7      .00     .00     .00     .00     .00     .00     .00     .00     .00     .00
0  8      .00     .00     .00     .00     .00     .00     .00     .00     .00     .00
0  9      .00     .00     .00     .00     .00     .00     .00     .00     .00     .00
0 10      .00     .00     .00     .00     .00     .00     .00     .00     .00     .00
0 11      .00     .00     .00     .00     .00     .00     .00     .00     .00     .00
0 12      .00     .00     .00     .00     .00     .00     .00     .00     .00     .00
0 13      .00     .00     .00     .00     .00     .00     .00     .00     .00     .00
0 14      .00     .00     .00     .00     .00     .00     .00     .00     .00     .00
0 15      .00     .00     .00     .00     .00     .00     .00     .00     .00     .00
0 16      .00     .00     .00     .00     .00     .00     .00     .00     .00     .00
0 17      .00     .00     .00     .00     .00     .00     .00     .00     .00     .00
0 18      .00     .00     .00     .00     .00     .00     .00     .00     .00     .00
0 19      .00     .00     .00     .00     .00     .00     .00     .00     .00     .00
0 20      .00     .00     .00     .00     .00     .00     .00     .00     .00     .00
0 21      .00     .00     .00     .00     .00     .00     .00     .00     .00     .00
0 22      .00     .00     .00     .00     .00     .00     .00     .00     .00     .00
0 23      .00     .00     .00     .00     .00     .00     .00     .00     .00     .00
0 24      .00     .00     .00     .00     .00     .00     .00     .00     .00     .00
0 25      .00     .00     .00     .00     .00     .00     .00     .00     .00     .00
1                      HEAD IN LAYER 10 AT END OF TIME STEP  2 IN STRESS PERIOD  1
           -----------------------------------------------------------------------

           1       2       3       4       5       6       7       8       9      10      11      12      13      14      15
 ................................................................................................................................
0  1   -69.24  -49.66  -36.18  -25.65  -16.23   -8.45   -3.36    -.90    -.15    -.02    -.00     .00     .00     .00     .00
0  2   -49.66  -43.13  -34.10  -24.96  -16.01   -8.38   -3.34    -.90    -.15    -.02    -.00     .00     .00     .00     .00
0  3   -36.18  -34.10  -29.43  -22.94  -15.29   -8.17   -3.29    -.89    -.15    -.02    -.00     .00     .00     .00     .00
0  4   -25.65  -24.96  -22.94  -19.25  -13.71   -7.66   -3.16    -.86    -.15    -.02    -.00     .00     .00     .00     .00
0  5   -16.23  -16.01  -15.29  -13.71  -10.70   -6.51   -2.85    -.81    -.14    -.02    -.00     .00     .00     .00     .00
0  6    -8.45   -8.38   -8.17   -7.66   -6.51   -4.47   -2.18    -.67    -.12    -.02    -.00     .00     .00     .00     .00
0  7    -3.36   -3.34   -3.29   -3.16   -2.85   -2.18   -1.24    -.44    -.09    -.02    -.00     .00     .00     .00     .00
0  8     -.90    -.90    -.89    -.86    -.81    -.67    -.44    -.18    -.04    -.01    -.00     .00     .00     .00     .00
0  9     -.15    -.15    -.15    -.15    -.14    -.12    -.09    -.04    -.01    -.00     .00     .00     .00     .00     .00
0 10     -.02    -.02    -.02    -.02    -.02    -.02    -.02    -.01    -.00     .00     .00     .00     .00     .00     .00
0 11     -.00    -.00    -.00    -.00    -.00    -.00    -.00    -.00     .00     .00     .00     .00     .00     .00     .00
0 12      .00     .00     .00     .00     .00     .00     .00     .00     .00     .00     .00     .00     .00     .00     .00
0 13      .00     .00     .00     .00     .00     .00     .00     .00     .00     .00     .00     .00     .00     .00     .00
0 14      .00     .00     .00     .00     .00     .00     .00     .00     .00     .00     .00     .00     .00     .00     .00
0 15      .00     .00     .00     .00     .00     .00     .00     .00     .00     .00     .00     .00     .00     .00     .00
0 16      .00     .00     .00     .00     .00     .00     .00     .00     .00     .00     .00     .00     .00     .00     .00
0 17      .00     .00     .00     .00     .00     .00     .00     .00     .00     .00     .00     .00     .00     .00     .00
0 18      .00     .00     .00     .00     .00     .00     .00     .00     .00     .00     .00     .00     .00     .00     .00
0 19      .00     .00     .00     .00     .00     .00     .00     .00     .00     .00     .00     .00     .00     .00     .00
0 20      .00     .00     .00     .00     .00     .00     .00     .00     .00     .00     .00     .00     .00     .00     .00
0 21      .00     .00     .00     .00     .00     .00     .00     .00     .00     .00     .00     .00     .00     .00     .00
0 22      .00     .00     .00     .00     .00     .00     .00     .00     .00     .00     .00     .00     .00     .00     .00
0 23      .00     .00     .00     .00     .00     .00     .00     .00     .00     .00     .00     .00     .00     .00     .00
0 24      .00     .00     .00     .00     .00     .00     .00     .00     .00     .00     .00     .00     .00     .00     .00
0 25      .00     .00     .00     .00     .00     .00     .00     .00     .00     .00     .00     .00     .00     .00     .00
1                      HEAD IN LAYER 10 AT END OF TIME STEP  2 IN STRESS PERIOD  1
           -----------------------------------------------------------------------

          16      17      18      19      20      21      22      23      24      25
 ........................................................................................
0  1      .00     .00     .00     .00     .00     .00     .00     .00     .00     .00
0  2      .00     .00     .00     .00     .00     .00     .00     .00     .00     .00
0  3      .00     .00     .00     .00     .00     .00     .00     .00     .00     .00
0  4      .00     .00     .00     .00     .00     .00     .00     .00     .00     .00
0  5      .00     .00     .00     .00     .00     .00     .00     .00     .00     .00
0  6      .00     .00     .00     .00     .00     .00     .00     .00     .00     .00
0  7      .00     .00     .00     .00     .00     .00     .00     .00     .00     .00
0  8      .00     .00     .00     .00     .00     .00     .00     .00     .00     .00
0  9      .00     .00     .00     .00     .00     .00     .00     .00     .00     .00
0 10      .00     .00     .00     .00     .00     .00     .00     .00     .00     .00
0 11      .00     .00     .00     .00     .00     .00     .00     .00     .00     .00
0 12      .00     .00     .00     .00     .00     .00     .00     .00     .00     .00
0 13      .00     .00     .00     .00     .00     .00     .00     .00     .00     .00
0 14      .00     .00     .00     .00     .00     .00     .00     .00     .00     .00
0 15      .00     .00     .00     .00     .00     .00     .00     .00     .00     .00
0 16      .00     .00     .00     .00     .00     .00     .00     .00     .00     .00
0 17      .00     .00     .00     .00     .00     .00     .00     .00     .00     .00
0 18      .00     .00     .00     .00     .00     .00     .00     .00     .00     .00
0 19      .00     .00     .00     .00     .00     .00     .00     .00     .00     .00
0 20      .00     .00     .00     .00     .00     .00     .00     .00     .00     .00
0 21      .00     .00     .00     .00     .00     .00     .00     .00     .00     .00
0 22      .00     .00     .00     .00     .00     .00     .00     .00     .00     .00
0 23      .00     .00     .00     .00     .00     .00     .00     .00     .00     .00
0 24      .00     .00     .00     .00     .00     .00     .00     .00     .00     .00
0 25      .00     .00     .00     .00     .00     .00     .00     .00     .00     .00
0


                              VOLUMETRIC BUDGET FOR ENTIRE MODEL AT END OF TIME STEP  2 IN STRESS PERIOD  1
                              -----------------------------------------------------------------------------
0                   CUMULATIVE VOLUMES      L**3                                     RATES FOR THIS TIME STEP      L**3/T
                    ------------------                                               ------------------------

                          IN:                                                                    IN:
                          ---                                                                    ---
                            STORAGE =    37.916                                                    STORAGE =    1.5706    
                      CONSTANT HEAD =    .74851E-18                                          CONSTANT HEAD =    .52192E-19
                              WELLS =    .00000                                                      WELLS =    .00000    
0                          TOTAL IN =    37.916                                                   TOTAL IN =    1.5706    
0                        OUT:                                                                   OUT:
                         ----                                                                   ----
                            STORAGE =    .00000                                                    STORAGE =    .00000    
                      CONSTANT HEAD =    .00000                                              CONSTANT HEAD =    .00000    
                              WELLS =    37.918                                                      WELLS =    1.5707    
0                         TOTAL OUT =    37.918                                                  TOTAL OUT =    1.5707    
0                          IN - OUT =   -.18044E-02                                               IN - OUT =   -.14913E-03
0               PERCENT DISCREPANCY =                -.00                              PERCENT DISCREPANCY =                -.01



0


          TIME SUMMARY AT END OF TIME STEP  2 IN STRESS PERIOD  1
                               SECONDS        MINUTES         HOURS          DAYS           YEARS
                           ---------------------------------------------------------------------------
      TIME STEP LENGTH         14.1401        .235668        .392780E-02    .163658E-03    .448072E-06
    STRESS PERIOD TIME         24.1401        .402335        .670559E-02    .279400E-03    .764954E-06
 TOTAL SIMULATION TIME         24.1401        .402335        .670559E-02    .279400E-03    .764954E-06
1
    11 ITERATIONS FOR TIME STEP   3 IN STRESS PERIOD  1
0MAXIMUM HEAD CHANGE FOR EACH ITERATION:
0 HEAD CHANGE LAYER,ROW,COL HEAD CHANGE LAYER,ROW,COL HEAD CHANGE LAYER,ROW,COL HEAD CHANGE LAYER,ROW,COL HEAD CHANGE LAYER,ROW,COL
 ------------------------------------------------------------------------------------------------------------------------------------
   -3.083     (  8,  1,  1)  -2.170     ( 10,  2,  4)  -4.836     ( 10,  1,  1)   .5232     ( 10,  4,  3)   .4511E-01 ( 10,  6,  5)
   -.1482E-01 ( 10,  1,  5)  -.3111E-01 (  9,  1,  1)  -.1638E-01 ( 10,  1,  1)  -.9890E-02 ( 10,  4,  1)   .1357E-02 ( 10,  6,  1)
   -.6218E-03 ( 10,  4,  1)
0
0HEAD/DRAWDOWN PRINTOUT FLAG = 1     TOTAL BUDGET PRINTOUT FLAG = 1     CELL-BY-CELL FLOW TERM FLAG = 0
 REUSING PREVIOUS VALUES OF IOFLG
1                      HEAD IN LAYER  9 AT END OF TIME STEP  3 IN STRESS PERIOD  1
           -----------------------------------------------------------------------

           1       2       3       4       5       6       7       8       9      10      11      12      13      14      15
 ................................................................................................................................
0  1   -71.10  -51.61  -38.33  -28.04  -18.86  -11.01   -5.25   -1.82    -.42    -.09    -.01    -.00     .00     .00     .00
0  2   -51.61  -45.15  -36.29  -27.37  -18.64  -10.94   -5.23   -1.82    -.42    -.09    -.01    -.00     .00     .00     .00
0  3   -38.33  -36.29  -31.72  -25.40  -17.93  -10.71   -5.17   -1.80    -.42    -.09    -.01    -.00     .00     .00     .00
0  4   -28.04  -27.37  -25.40  -21.81  -16.37  -10.17   -5.01   -1.77    -.41    -.09    -.01    -.00     .00     .00     .00
0  5   -18.86  -18.64  -17.93  -16.37  -13.34   -8.93   -4.62   -1.68    -.40    -.08    -.01    -.00     .00     .00     .00
0  6   -11.01  -10.94  -10.71  -10.17   -8.93   -6.63   -3.76   -1.46    -.36    -.08    -.01     .00     .00     .00     .00
0  7    -5.25   -5.23   -5.17   -5.01   -4.62   -3.76   -2.40   -1.04    -.28    -.06    -.01     .00     .00     .00     .00
0  8    -1.82   -1.82   -1.80   -1.77   -1.68   -1.46   -1.04    -.53    -.16    -.04    -.01     .00     .00     .00     .00
0  9     -.42    -.42    -.42    -.41    -.40    -.36    -.28    -.16    -.06    -.02    -.00     .00     .00     .00     .00
0 10     -.09    -.09    -.09    -.09    -.08    -.08    -.06    -.04    -.02    -.01    -.00     .00     .00     .00     .00
0 11     -.01    -.01    -.01    -.01    -.01    -.01    -.01    -.01    -.00    -.00     .00     .00     .00     .00     .00
0 12     -.00    -.00    -.00    -.00    -.00     .00     .00     .00     .00     .00     .00     .00     .00     .00     .00
0 13      .00     .00     .00     .00     .00     .00     .00     .00     .00     .00     .00     .00     .00     .00     .00
0 14      .00     .00     .00     .00     .00     .00     .00     .00     .00     .00     .00     .00     .00     .00     .00
0 15      .00     .00     .00     .00     .00     .00     .00     .00     .00     .00     .00     .00     .00     .00     .00
0 16      .00     .00     .00     .00     .00     .00     .00     .00     .00     .00     .00     .00     .00     .00     .00
0 17      .00     .00     .00     .00     .00     .00     .00     .00     .00     .00     .00     .00     .00     .00     .00
0 18      .00     .00     .00     .00     .00     .00     .00     .00     .00     .00     .00     .00     .00     .00     .00
0 19      .00     .00     .00     .00     .00     .00     .00     .00     .00     .00     .00     .00     .00     .00     .00
0 20      .00     .00     .00     .00     .00     .00     .00     .00     .00     .00     .00     .00     .00     .00     .00
0 21      .00     .00     .00     .00     .00     .00     .00     .00     .00     .00     .00     .00     .00     .00     .00
0 22      .00     .00     .00     .00     .00     .00     .00     .00     .00     .00     .00     .00     .00     .00     .00
0 23      .00     .00     .00     .00     .00     .00     .00     .00     .00     .00     .00     .00     .00     .00     .00
0 24      .00     .00     .00     .00     .00     .00     .00     .00     .00     .00     .00     .00     .00     .00     .00
0 25      .00     .00     .00     .00     .00     .00     .00     .00     .00     .00     .00     .00     .00     .00     .00
1                      HEAD IN LAYER  9 AT END OF TIME STEP  3 IN STRESS PERIOD  1
           -----------------------------------------------------------------------

          16      17      18      19      20      21      22      23      24      25
 ........................................................................................
0  1      .00     .00     .00     .00     .00     .00     .00     .00     .00     .00
0  2      .00     .00     .00     .00     .00     .00     .00     .00     .00     .00
0  3      .00     .00     .00     .00     .00     .00     .00     .00     .00     .00
0  4      .00     .00     .00     .00     .00     .00     .00     .00     .00     .00
0  5      .00     .00     .00     .00     .00     .00     .00     .00     .00     .00
0  6      .00     .00     .00     .00     .00     .00     .00     .00     .00     .00
0  7      .00     .00     .00     .00     .00     .00     .00     .00     .00     .00
0  8      .00     .00     .00     .00     .00     .00     .00     .00     .00     .00
0  9      .00     .00     .00     .00     .00     .00     .00     .00     .00     .00
0 10      .00     .00     .00     .00     .00     .00     .00     .00     .00     .00
0 11      .00     .00     .00     .00     .00     .00     .00     .00     .00     .00
0 12      .00     .00     .00     .00     .00     .00     .00     .00     .00     .00
0 13      .00     .00     .00     .00     .00     .00     .00     .00     .00     .00
0 14      .00     .00     .00     .00     .00     .00     .00     .00     .00     .00
0 15      .00     .00     .00     .00     .00     .00     .00     .00     .00     .00
0 16      .00     .00     .00     .00     .00     .00     .00     .00     .00     .00
0 17      .00     .00     .00     .00     .00     .00     .00     .00     .00     .00
0 18      .00     .00     .00     .00     .00     .00     .00     .00     .00     .00
0 19      .00     .00     .00     .00     .00     .00     .00     .00     .00     .00
0 20      .00     .00     .00     .00     .00     .00     .00     .00     .00     .00
0 21      .00     .00     .00     .00     .00     .00     .00     .00     .00     .00
0 22      .00     .00     .00     .00     .00     .00     .00     .00     .00     .00
0 23      .00     .00     .00     .00     .00     .00     .00     .00     .00     .00
0 24      .00     .00     .00     .00     .00     .00     .00     .00     .00     .00
0 25      .00     .00     .00     .00     .00     .00     .00     .00     .00     .00
1                      HEAD IN LAYER 10 AT END OF TIME STEP  3 IN STRESS PERIOD  1
           -----------------------------------------------------------------------

           1       2       3       4       5       6       7       8       9      10      11      12      13      14      15
 ................................................................................................................................
0  1   -76.08  -56.47  -42.88  -32.10  -22.11  -13.17   -6.37   -2.22    -.51    -.11    -.02    -.00     .00     .00     .00
0  2   -56.47  -49.91  -40.78  -31.39  -21.87  -13.09   -6.34   -2.22    -.51    -.11    -.02    -.00     .00     .00     .00
0  3   -42.88  -40.78  -36.00  -29.28  -21.08  -12.83   -6.27   -2.20    -.51    -.11    -.02    -.00     .00     .00     .00
0  4   -32.10  -31.39  -29.28  -25.37  -19.32  -12.20   -6.08   -2.16    -.50    -.10    -.01    -.00     .00     .00     .00
0  5   -22.11  -21.87  -21.08  -19.32  -15.88  -10.75   -5.61   -2.04    -.48    -.10    -.01    -.00     .00     .00     .00
0  6   -13.17  -13.09  -12.83  -12.20  -10.75   -8.02   -4.57   -1.78    -.44    -.09    -.01    -.00     .00     .00     .00
0  7    -6.37   -6.34   -6.27   -6.08   -5.61   -4.57   -2.93   -1.28    -.34    -.08    -.01    -.00     .00     .00     .00
0  8    -2.22   -2.22   -2.20   -2.16   -2.04   -1.78   -1.28    -.64    -.20    -.05    -.01     .00     .00     .00     .00
0  9     -.51    -.51    -.51    -.50    -.48    -.44    -.34    -.20    -.07    -.02    -.00     .00     .00     .00     .00
0 10     -.11    -.11    -.11    -.10    -.10    -.09    -.08    -.05    -.02    -.01    -.00     .00     .00     .00     .00
0 11     -.02    -.02    -.02    -.01    -.01    -.01    -.01    -.01    -.00    -.00     .00     .00     .00     .00     .00
0 12     -.00    -.00    -.00    -.00    -.00    -.00    -.00     .00     .00     .00     .00     .00     .00     .00     .00
0 13      .00     .00     .00     .00     .00     .00     .00     .00     .00     .00     .00     .00     .00     .00     .00
0 14      .00     .00     .00     .00     .00     .00     .00     .00     .00     .00     .00     .00     .00     .00     .00
0 15      .00     .00     .00     .00     .00     .00     .00     .00     .00     .00     .00     .00     .00     .00     .00
0 16      .00     .00     .00     .00     .00     .00     .00     .00     .00     .00     .00     .00     .00     .00     .00
0 17      .00     .00     .00     .00     .00     .00     .00     .00     .00     .00     .00     .00     .00     .00     .00
0 18      .00     .00     .00     .00     .00     .00     .00     .00     .00     .00     .00     .00     .00     .00     .00
0 19      .00     .00     .00     .00     .00     .00     .00     .00     .00     .00     .00     .00     .00     .00     .00
0 20      .00     .00     .00     .00     .00     .00     .00     .00     .00     .00     .00     .00     .00     .00     .00
0 21      .00     .00     .00     .00     .00     .00     .00     .00     .00     .00     .00     .00     .00     .00     .00
0 22      .00     .00     .00     .00     .00     .00     .00     .00     .00     .00     .00     .00     .00     .00     .00
0 23      .00     .00     .00     .00     .00     .00     .00     .00     .00     .00     .00     .00     .00     .00     .00
0 24      .00     .00     .00     .00     .00     .00     .00     .00     .00     .00     .00     .00     .00     .00     .00
0 25      .00     .00     .00     .00     .00     .00     .00     .00     .00     .00     .00     .00     .00     .00     .00
1                      HEAD IN LAYER 10 AT END OF TIME STEP  3 IN STRESS PERIOD  1
           -----------------------------------------------------------------------

          16      17      18      19      20      21      22      23      24      25
 ........................................................................................
0  1      .00     .00     .00     .00     .00     .00     .00     .00     .00     .00
0  2      .00     .00     .00     .00     .00     .00     .00     .00     .00     .00
0  3      .00     .00     .00     .00     .00     .00     .00     .00     .00     .00
0  4      .00     .00     .00     .00     .00     .00     .00     .00     .00     .00
0  5      .00     .00     .00     .00     .00     .00     .00     .00     .00     .00
0  6      .00     .00     .00     .00     .00     .00     .00     .00     .00     .00
0  7      .00     .00     .00     .00     .00     .00     .00     .00     .00     .00
0  8      .00     .00     .00     .00     .00     .00     .00     .00     .00     .00
0  9      .00     .00     .00     .00     .00     .00     .00     .00     .00     .00
0 10      .00     .00     .00     .00     .00     .00     .00     .00     .00     .00
0 11      .00     .00     .00     .00     .00     .00     .00     .00     .00     .00
0 12      .00     .00     .00     .00     .00     .00     .00     .00     .00     .00
0 13      .00     .00     .00     .00     .00     .00     .00     .00     .00     .00
0 14      .00     .00     .00     .00     .00     .00     .00     .00     .00     .00
0 15      .00     .00     .00     .00     .00     .00     .00     .00     .00     .00
0 16      .00     .00     .00     .00     .00     .00     .00     .00     .00     .00
0 17      .00     .00     .00     .00     .00     .00     .00     .00     .00     .00
0 18      .00     .00     .00     .00     .00     .00     .00     .00     .00     .00
0 19      .00     .00     .00     .00     .00     .00     .00     .00     .00     .00
0 20      .00     .00     .00     .00     .00     .00     .00     .00     .00     .00
0 21      .00     .00     .00     .00     .00     .00     .00     .00     .00     .00
0 22      .00     .00     .00     .00     .00     .00     .00     .00     .00     .00
0 23      .00     .00     .00     .00     .00     .00     .00     .00     .00     .00
0 24      .00     .00     .00     .00     .00     .00     .00     .00     .00     .00
0 25      .00     .00     .00     .00     .00     .00     .00     .00     .00     .00
0


                              VOLUMETRIC BUDGET FOR ENTIRE MODEL AT END OF TIME STEP  3 IN STRESS PERIOD  1
                              -----------------------------------------------------------------------------
0                   CUMULATIVE VOLUMES      L**3                                     RATES FOR THIS TIME STEP      L**3/T
                    ------------------                                               ------------------------

                          IN:                                                                    IN:
                          ---                                                                    ---
                            STORAGE =    69.318                                                    STORAGE =    1.5706    
                      CONSTANT HEAD =    .31199E-16                                          CONSTANT HEAD =    .15230E-17
                              WELLS =    .00000                                                      WELLS =    .00000    
0                          TOTAL IN =    69.318                                                   TOTAL IN =    1.5706    
0                        OUT:                                                                   OUT:
                         ----                                                                   ----
                            STORAGE =    .00000                                                    STORAGE =    .00000    
                      CONSTANT HEAD =    .00000                                              CONSTANT HEAD =    .00000    
                              WELLS =    69.324                                                      WELLS =    1.5707    
0                         TOTAL OUT =    69.324                                                  TOTAL OUT =    1.5707    
0                          IN - OUT =   -.53940E-02                                               IN - OUT =   -.17953E-03
0               PERCENT DISCREPANCY =                -.01                              PERCENT DISCREPANCY =                -.01



0


          TIME SUMMARY AT END OF TIME STEP  3 IN STRESS PERIOD  1
                               SECONDS        MINUTES         HOURS          DAYS           YEARS
                           ---------------------------------------------------------------------------
      TIME STEP LENGTH         19.9941        .333234        .555391E-02    .231413E-03    .633574E-06
    STRESS PERIOD TIME         44.1342        .735570        .122595E-01    .510812E-03    .139853E-05
 TOTAL SIMULATION TIME         44.1342        .735570        .122595E-01    .510812E-03    .139853E-05
1
    11 ITERATIONS FOR TIME STEP   4 IN STRESS PERIOD  1
0MAXIMUM HEAD CHANGE FOR EACH ITERATION:
0 HEAD CHANGE LAYER,ROW,COL HEAD CHANGE LAYER,ROW,COL HEAD CHANGE LAYER,ROW,COL HEAD CHANGE LAYER,ROW,COL HEAD CHANGE LAYER,ROW,COL
 ------------------------------------------------------------------------------------------------------------------------------------
   -4.106     (  8,  1,  1)  -1.586     ( 10,  4,  4)  -3.874     ( 10,  1,  1)   .3779     ( 10,  5,  3)  -.6308E-01 (  9,  4,  3)
   -.1716E-01 ( 10,  1,  5)  -.3976E-01 ( 10,  1,  1)  -.2334E-01 ( 10,  1,  1)  -.1851E-01 ( 10,  4,  1)   .2923E-02 ( 10,  6,  1)
   -.9523E-03 ( 10,  4,  1)
0
0HEAD/DRAWDOWN PRINTOUT FLAG = 1     TOTAL BUDGET PRINTOUT FLAG = 1     CELL-BY-CELL FLOW TERM FLAG = 0
 REUSING PREVIOUS VALUES OF IOFLG
1                      HEAD IN LAYER  9 AT END OF TIME STEP  4 IN STRESS PERIOD  1
           -----------------------------------------------------------------------

           1       2       3       4       5       6       7       8       9      10      11      12      13      14      15
 ................................................................................................................................
0  1   -75.62  -56.12  -42.78  -32.39  -22.98  -14.63   -7.99   -3.39   -1.01    -.27    -.05    -.01     .00     .00     .00
0  2   -56.12  -49.64  -40.73  -31.71  -22.76  -14.55   -7.97   -3.38   -1.01    -.27    -.05    -.01     .00     .00     .00
0  3   -42.78  -40.73  -36.12  -29.71  -22.01  -14.30   -7.89   -3.36   -1.01    -.27    -.05    -.01     .00     .00     .00
0  4   -32.39  -31.71  -29.71  -26.03  -20.38  -13.70   -7.69   -3.31    -.99    -.27    -.05    -.01     .00     .00     .00
0  5   -22.98  -22.76  -22.01  -20.38  -17.17  -12.32   -7.21   -3.17    -.97    -.26    -.05    -.01     .00     .00     .00
0  6   -14.63  -14.55  -14.31  -13.70  -12.32   -9.67   -6.11   -2.84    -.89    -.25    -.05    -.01     .00     .00     .00
0  7    -7.99   -7.97   -7.89   -7.69   -7.21   -6.11   -4.27   -2.18    -.74    -.21    -.04    -.01     .00     .00     .00
0  8    -3.39   -3.38   -3.36   -3.31   -3.17   -2.84   -2.18   -1.26    -.48    -.15    -.03    -.00     .00     .00     .00
0  9    -1.01   -1.01   -1.01    -.99    -.97    -.89    -.74    -.48    -.21    -.07    -.02    -.00     .00     .00     .00
0 10     -.27    -.27    -.27    -.27    -.26    -.25    -.21    -.15    -.07    -.03    -.01    -.00     .00     .00     .00
0 11     -.05    -.05    -.05    -.05    -.05    -.05    -.04    -.03    -.02    -.01    -.00     .00     .00     .00     .00
0 12     -.01    -.01    -.01    -.01    -.01    -.01    -.01    -.00    -.00    -.00     .00     .00     .00     .00     .00
0 13      .00     .00     .00     .00     .00     .00     .00     .00     .00     .00     .00     .00     .00     .00     .00
0 14      .00     .00     .00     .00     .00     .00     .00     .00     .00     .00     .00     .00     .00     .00     .00
0 15      .00     .00     .00     .00     .00     .00     .00     .00     .00     .00     .00     .00     .00     .00     .00
0 16      .00     .00     .00     .00     .00     .00     .00     .00     .00     .00     .00     .00     .00     .00     .00
0 17      .00     .00     .00     .00     .00     .00     .00     .00     .00     .00     .00     .00     .00     .00     .00
0 18      .00     .00     .00     .00     .00     .00     .00     .00     .00     .00     .00     .00     .00     .00     .00
0 19      .00     .00     .00     .00     .00     .00     .00     .00     .00     .00     .00     .00     .00     .00     .00
0 20      .00     .00     .00     .00     .00     .00     .00     .00     .00     .00     .00     .00     .00     .00     .00
0 21      .00     .00     .00     .00     .00     .00     .00     .00     .00     .00     .00     .00     .00     .00     .00
0 22      .00     .00     .00     .00     .00     .00     .00     .00     .00     .00     .00     .00     .00     .00     .00
0 23      .00     .00     .00     .00     .00     .00     .00     .00     .00     .00     .00     .00     .00     .00     .00
0 24      .00     .00     .00     .00     .00     .00     .00     .00     .00     .00     .00     .00     .00     .00     .00
0 25      .00     .00     .00     .00     .00     .00     .00     .00     .00     .00     .00     .00     .00     .00     .00
1                      HEAD IN LAYER  9 AT END OF TIME STEP  4 IN STRESS PERIOD  1
           -----------------------------------------------------------------------

          16      17      18      19      20      21      22      23      24      25
 ........................................................................................
0  1      .00     .00     .00     .00     .00     .00     .00     .00     .00     .00
0  2      .00     .00     .00     .00     .00     .00     .00     .00     .00     .00
0  3      .00     .00     .00     .00     .00     .00     .00     .00     .00     .00
0  4      .00     .00     .00     .00     .00     .00     .00     .00     .00     .00
0  5      .00     .00     .00     .00     .00     .00     .00     .00     .00     .00
0  6      .00     .00     .00     .00     .00     .00     .00     .00     .00     .00
0  7      .00     .00     .00     .00     .00     .00     .00     .00     .00     .00
0  8      .00     .00     .00     .00     .00     .00     .00     .00     .00     .00
0  9      .00     .00     .00     .00     .00     .00     .00     .00     .00     .00
0 10      .00     .00     .00     .00     .00     .00     .00     .00     .00     .00
0 11      .00     .00     .00     .00     .00     .00     .00     .00     .00     .00
0 12      .00     .00     .00     .00     .00     .00     .00     .00     .00     .00
0 13      .00     .00     .00     .00     .00     .00     .00     .00     .00     .00
0 14      .00     .00     .00     .00     .00     .00     .00     .00     .00     .00
0 15      .00     .00     .00     .00     .00     .00     .00     .00     .00     .00
0 16      .00     .00     .00     .00     .00     .00     .00     .00     .00     .00
0 17      .00     .00     .00     .00     .00     .00     .00     .00     .00     .00
0 18      .00     .00     .00     .00     .00     .00     .00     .00     .00     .00
0 19      .00     .00     .00     .00     .00     .00     .00     .00     .00     .00
0 20      .00     .00     .00     .00     .00     .00     .00     .00     .00     .00
0 21      .00     .00     .00     .00     .00     .00     .00     .00     .00     .00
0 22      .00     .00     .00     .00     .00     .00     .00     .00     .00     .00
0 23      .00     .00     .00     .00     .00     .00     .00     .00     .00     .00
0 24      .00     .00     .00     .00     .00     .00     .00     .00     .00     .00
0 25      .00     .00     .00     .00     .00     .00     .00     .00     .00     .00
1                      HEAD IN LAYER 10 AT END OF TIME STEP  4 IN STRESS PERIOD  1
           -----------------------------------------------------------------------

           1       2       3       4       5       6       7       8       9      10      11      12      13      14      15
 ................................................................................................................................
0  1   -81.19  -61.57  -47.95  -37.08  -26.88  -17.42   -9.62   -4.10   -1.23    -.33    -.06    -.01     .00     .00     .00
0  2   -61.57  -55.00  -45.84  -36.36  -26.63  -17.33   -9.59   -4.09   -1.23    -.33    -.06    -.01     .00     .00     .00
0  3   -47.95  -45.84  -41.03  -34.22  -25.81  -17.05   -9.50   -4.07   -1.22    -.33    -.06    -.01     .00     .00     .00
0  4   -37.08  -36.36  -34.22  -30.23  -23.98  -16.35   -9.27   -4.00   -1.21    -.32    -.06    -.01     .00     .00     .00
0  5   -26.88  -26.63  -25.81  -23.98  -20.35  -14.74   -8.69   -3.84   -1.17    -.32    -.06    -.01     .00     .00     .00
0  6   -17.42  -17.33  -17.05  -16.35  -14.74  -11.62   -7.38   -3.44   -1.08    -.30    -.06    -.01     .00     .00     .00
0  7    -9.62   -9.59   -9.50   -9.27   -8.69   -7.38   -5.17   -2.65    -.89    -.26    -.05    -.01     .00     .00     .00
0  8    -4.10   -4.09   -4.07   -4.00   -3.84   -3.44   -2.65   -1.53    -.58    -.18    -.04    -.01     .00     .00     .00
0  9    -1.23   -1.23   -1.22   -1.21   -1.17   -1.08    -.89    -.58    -.25    -.09    -.02    -.00     .00     .00     .00
0 10     -.33    -.33    -.33    -.32    -.32    -.30    -.26    -.18    -.09    -.04    -.01    -.00     .00     .00     .00
0 11     -.06    -.06    -.06    -.06    -.06    -.06    -.05    -.04    -.02    -.01    -.00     .00     .00     .00     .00
0 12     -.01    -.01    -.01    -.01    -.01    -.01    -.01    -.01    -.00    -.00     .00     .00     .00     .00     .00
0 13      .00     .00     .00     .00     .00     .00     .00     .00     .00     .00     .00     .00     .00     .00     .00
0 14      .00     .00     .00     .00     .00     .00     .00     .00     .00     .00     .00     .00     .00     .00     .00
0 15      .00     .00     .00     .00     .00     .00     .00     .00     .00     .00     .00     .00     .00     .00     .00
0 16      .00     .00     .00     .00     .00     .00     .00     .00     .00     .00     .00     .00     .00     .00     .00
0 17      .00     .00     .00     .00     .00     .00     .00     .00     .00     .00     .00     .00     .00     .00     .00
0 18      .00     .00     .00     .00     .00     .00     .00     .00     .00     .00     .00     .00     .00     .00     .00
0 19      .00     .00     .00     .00     .00     .00     .00     .00     .00     .00     .00     .00     .00     .00     .00
0 20      .00     .00     .00     .00     .00     .00     .00     .00     .00     .00     .00     .00     .00     .00     .00
0 21      .00     .00     .00     .00     .00     .00     .00     .00     .00     .00     .00     .00     .00     .00     .00
0 22      .00     .00     .00     .00     .00     .00     .00     .00     .00     .00     .00     .00     .00     .00     .00
0 23      .00     .00     .00     .00     .00     .00     .00     .00     .00     .00     .00     .00     .00     .00     .00
0 24      .00     .00     .00     .00     .00     .00     .00     .00     .00     .00     .00     .00     .00     .00     .00
0 25      .00     .00     .00     .00     .00     .00     .00     .00     .00     .00     .00     .00     .00     .00     .00
1                      HEAD IN LAYER 10 AT END OF TIME STEP  4 IN STRESS PERIOD  1
           -----------------------------------------------------------------------

          16      17      18      19      20      21      22      23      24      25
 ........................................................................................
0  1      .00     .00     .00     .00     .00     .00     .00     .00     .00     .00
0  2      .00     .00     .00     .00     .00     .00     .00     .00     .00     .00
0  3      .00     .00     .00     .00     .00     .00     .00     .00     .00     .00
0  4      .00     .00     .00     .00     .00     .00     .00     .00     .00     .00
0  5      .00     .00     .00     .00     .00     .00     .00     .00     .00     .00
0  6      .00     .00     .00     .00     .00     .00     .00     .00     .00     .00
0  7      .00     .00     .00     .00     .00     .00     .00     .00     .00     .00
0  8      .00     .00     .00     .00     .00     .00     .00     .00     .00     .00
0  9      .00     .00     .00     .00     .00     .00     .00     .00     .00     .00
0 10      .00     .00     .00     .00     .00     .00     .00     .00     .00     .00
0 11      .00     .00     .00     .00     .00     .00     .00     .00     .00     .00
0 12      .00     .00     .00     .00     .00     .00     .00     .00     .00     .00
0 13      .00     .00     .00     .00     .00     .00     .00     .00     .00     .00
0 14      .00     .00     .00     .00     .00     .00     .00     .00     .00     .00
0 15      .00     .00     .00     .00     .00     .00     .00     .00     .00     .00
0 16      .00     .00     .00     .00     .00     .00     .00     .00     .00     .00
0 17      .00     .00     .00     .00     .00     .00     .00     .00     .00     .00
0 18      .00     .00     .00     .00     .00     .00     .00     .00     .00     .00
0 19      .00     .00     .00     .00     .00     .00     .00     .00     .00     .00
0 20      .00     .00     .00     .00     .00     .00     .00     .00     .00     .00
0 21      .00     .00     .00     .00     .00     .00     .00     .00     .00     .00
0 22      .00     .00     .00     .00     .00     .00     .00     .00     .00     .00
0 23      .00     .00     .00     .00     .00     .00     .00     .00     .00     .00
0 24      .00     .00     .00     .00     .00     .00     .00     .00     .00     .00
0 25      .00     .00     .00     .00     .00     .00     .00     .00     .00     .00
0


                              VOLUMETRIC BUDGET FOR ENTIRE MODEL AT END OF TIME STEP  4 IN STRESS PERIOD  1
                              -----------------------------------------------------------------------------
0                   CUMULATIVE VOLUMES      L**3                                     RATES FOR THIS TIME STEP      L**3/T
                    ------------------                                               ------------------------

                          IN:                                                                    IN:
                          ---                                                                    ---
                            STORAGE =    113.72                                                    STORAGE =    1.5705    
                      CONSTANT HEAD =    .99701E-15                                          CONSTANT HEAD =    .34162E-16
                              WELLS =    .00000                                                      WELLS =    .00000    
0                          TOTAL IN =    113.72                                                   TOTAL IN =    1.5705    
0                        OUT:                                                                   OUT:
                         ----                                                                   ----
                            STORAGE =    .00000                                                    STORAGE =    .00000    
                      CONSTANT HEAD =    .00000                                              CONSTANT HEAD =    .00000    
                              WELLS =    113.73                                                      WELLS =    1.5707    
0                         TOTAL OUT =    113.73                                                  TOTAL OUT =    1.5707    
0                          IN - OUT =   -.12856E-01                                               IN - OUT =   -.26393E-03
0               PERCENT DISCREPANCY =                -.01                              PERCENT DISCREPANCY =                -.02



0


          TIME SUMMARY AT END OF TIME STEP  4 IN STRESS PERIOD  1
                               SECONDS        MINUTES         HOURS          DAYS           YEARS
                           ---------------------------------------------------------------------------
      TIME STEP LENGTH         28.2716        .471193        .785322E-02    .327218E-03    .895873E-06
    STRESS PERIOD TIME         72.4058        1.20676        .201127E-01    .838030E-03    .229440E-05
 TOTAL SIMULATION TIME         72.4058        1.20676        .201127E-01    .838030E-03    .229440E-05
1
    14 ITERATIONS FOR TIME STEP   5 IN STRESS PERIOD  1
0MAXIMUM HEAD CHANGE FOR EACH ITERATION:
0 HEAD CHANGE LAYER,ROW,COL HEAD CHANGE LAYER,ROW,COL HEAD CHANGE LAYER,ROW,COL HEAD CHANGE LAYER,ROW,COL HEAD CHANGE LAYER,ROW,COL
 ------------------------------------------------------------------------------------------------------------------------------------
   -5.135     (  8,  1,  1)  -1.288     ( 10,  5,  5)  -3.295     ( 10,  1,  1)   .2742     ( 10,  6,  4)  -.8856E-01 (  9,  5,  1)
   -.1941E-01 ( 10,  1,  5)  -.4740E-01 ( 10,  1,  1)  -.3065E-01 ( 10,  1,  1)  -.3058E-01 ( 10,  4,  1)   .5399E-02 ( 10,  6,  1)
   -.1281E-02 ( 10,  4,  1)  -.1882E-02 ( 10,  2,  2)  -.5006E-02 ( 10,  1,  1)   .6002E-03 ( 10,  5,  4)
0
0HEAD/DRAWDOWN PRINTOUT FLAG = 1     TOTAL BUDGET PRINTOUT FLAG = 1     CELL-BY-CELL FLOW TERM FLAG = 0
 REUSING PREVIOUS VALUES OF IOFLG
1                      HEAD IN LAYER  9 AT END OF TIME STEP  5 IN STRESS PERIOD  1
           -----------------------------------------------------------------------

           1       2       3       4       5       6       7       8       9      10      11      12      13      14      15
 ................................................................................................................................
0  1   -79.58  -60.07  -46.70  -36.24  -26.67  -18.00  -10.79   -5.29   -1.95    -.65    -.16    -.03    -.00     .00     .00
0  2   -60.07  -53.59  -44.64  -35.55  -26.44  -17.92  -10.76   -5.29   -1.95    -.65    -.16    -.03    -.00     .00     .00
0  3   -46.70  -44.64  -40.00  -33.52  -25.68  -17.66  -10.67   -5.26   -1.94    -.65    -.16    -.03    -.00     .00     .00
0  4   -36.24  -35.55  -33.52  -29.78  -23.99  -17.02  -10.45   -5.19   -1.92    -.64    -.16    -.03    -.00     .00     .00
0  5   -26.67  -26.44  -25.68  -23.99  -20.66  -15.55   -9.90   -5.02   -1.88    -.63    -.16    -.03    -.00     .00     .00
0  6   -18.00  -17.92  -17.66  -17.02  -15.55  -12.66   -8.64   -4.59   -1.76    -.60    -.15    -.02    -.00     .00     .00
0  7   -10.79  -10.76  -10.67  -10.45   -9.90   -8.64   -6.43   -3.71   -1.51    -.53    -.14    -.02    -.00     .00     .00
0  8    -5.29   -5.29   -5.26   -5.19   -5.02   -4.59   -3.71   -2.38   -1.07    -.41    -.11    -.02    -.00     .00     .00
0  9    -1.95   -1.95   -1.94   -1.92   -1.88   -1.76   -1.51   -1.07    -.55    -.23    -.07    -.01    -.00     .00     .00
0 10     -.65    -.65    -.65    -.64    -.63    -.60    -.53    -.41    -.23    -.11    -.03    -.01     .00     .00     .00
0 11     -.16    -.16    -.16    -.16    -.16    -.15    -.14    -.11    -.07    -.03    -.01    -.00     .00     .00     .00
0 12     -.03    -.03    -.03    -.03    -.03    -.02    -.02    -.02    -.01    -.01    -.00     .00     .00     .00     .00
0 13     -.00    -.00    -.00    -.00    -.00    -.00    -.00    -.00    -.00     .00     .00     .00     .00     .00     .00
0 14      .00     .00     .00     .00     .00     .00     .00     .00     .00     .00     .00     .00     .00     .00     .00
0 15      .00     .00     .00     .00     .00     .00     .00     .00     .00     .00     .00     .00     .00     .00     .00
0 16      .00     .00     .00     .00     .00     .00     .00     .00     .00     .00     .00     .00     .00     .00     .00
0 17      .00     .00     .00     .00     .00     .00     .00     .00     .00     .00     .00     .00     .00     .00     .00
0 18      .00     .00     .00     .00     .00     .00     .00     .00     .00     .00     .00     .00     .00     .00     .00
0 19      .00     .00     .00     .00     .00     .00     .00     .00     .00     .00     .00     .00     .00     .00     .00
0 20      .00     .00     .00     .00     .00     .00     .00     .00     .00     .00     .00     .00     .00     .00     .00
0 21      .00     .00     .00     .00     .00     .00     .00     .00     .00     .00     .00     .00     .00     .00     .00
0 22      .00     .00     .00     .00     .00     .00     .00     .00     .00     .00     .00     .00     .00     .00     .00
0 23      .00     .00     .00     .00     .00     .00     .00     .00     .00     .00     .00     .00     .00     .00     .00
0 24      .00     .00     .00     .00     .00     .00     .00     .00     .00     .00     .00     .00     .00     .00     .00
0 25      .00     .00     .00     .00     .00     .00     .00     .00     .00     .00     .00     .00     .00     .00     .00
1                      HEAD IN LAYER  9 AT END OF TIME STEP  5 IN STRESS PERIOD  1
           -----------------------------------------------------------------------

          16      17      18      19      20      21      22      23      24      25
 ........................................................................................
0  1      .00     .00     .00     .00     .00     .00     .00     .00     .00     .00
0  2      .00     .00     .00     .00     .00     .00     .00     .00     .00     .00
0  3      .00     .00     .00     .00     .00     .00     .00     .00     .00     .00
0  4      .00     .00     .00     .00     .00     .00     .00     .00     .00     .00
0  5      .00     .00     .00     .00     .00     .00     .00     .00     .00     .00
0  6      .00     .00     .00     .00     .00     .00     .00     .00     .00     .00
0  7      .00     .00     .00     .00     .00     .00     .00     .00     .00     .00
0  8      .00     .00     .00     .00     .00     .00     .00     .00     .00     .00
0  9      .00     .00     .00     .00     .00     .00     .00     .00     .00     .00
0 10      .00     .00     .00     .00     .00     .00     .00     .00     .00     .00
0 11      .00     .00     .00     .00     .00     .00     .00     .00     .00     .00
0 12      .00     .00     .00     .00     .00     .00     .00     .00     .00     .00
0 13      .00     .00     .00     .00     .00     .00     .00     .00     .00     .00
0 14      .00     .00     .00     .00     .00     .00     .00     .00     .00     .00
0 15      .00     .00     .00     .00     .00     .00     .00     .00     .00     .00
0 16      .00     .00     .00     .00     .00     .00     .00     .00     .00     .00
0 17      .00     .00     .00     .00     .00     .00     .00     .00     .00     .00
0 18      .00     .00     .00     .00     .00     .00     .00     .00     .00     .00
0 19      .00     .00     .00     .00     .00     .00     .00     .00     .00     .00
0 20      .00     .00     .00     .00     .00     .00     .00     .00     .00     .00
0 21      .00     .00     .00     .00     .00     .00     .00     .00     .00     .00
0 22      .00     .00     .00     .00     .00     .00     .00     .00     .00     .00
0 23      .00     .00     .00     .00     .00     .00     .00     .00     .00     .00
0 24      .00     .00     .00     .00     .00     .00     .00     .00     .00     .00
0 25      .00     .00     .00     .00     .00     .00     .00     .00     .00     .00
1                      HEAD IN LAYER 10 AT END OF TIME STEP  5 IN STRESS PERIOD  1
           -----------------------------------------------------------------------

           1       2       3       4       5       6       7       8       9      10      11      12      13      14      15
 ................................................................................................................................
0  1   -85.43  -65.81  -52.18  -41.26  -30.95  -21.23  -12.85   -6.34   -2.34    -.78    -.20    -.03    -.00     .00     .00
0  2   -65.81  -59.24  -50.05  -40.54  -30.70  -21.14  -12.82   -6.33   -2.34    -.78    -.19    -.03    -.00     .00     .00
0  3   -52.18  -50.05  -45.23  -38.38  -29.86  -20.84  -12.72   -6.30   -2.33    -.78    -.19    -.03    -.00     .00     .00
0  4   -41.26  -40.54  -38.38  -34.35  -28.00  -20.11  -12.46   -6.22   -2.31    -.78    -.19    -.03    -.00     .00     .00
0  5   -30.95  -30.70  -29.86  -28.00  -24.27  -18.41  -11.81   -6.01   -2.26    -.76    -.19    -.03    -.00     .00     .00
0  6   -21.23  -21.14  -20.84  -20.11  -18.41  -15.06  -10.32   -5.50   -2.12    -.73    -.18    -.03    -.00     .00     .00
0  7   -12.85  -12.82  -12.72  -12.46  -11.81  -10.32   -7.70   -4.45   -1.82    -.64    -.17    -.03    -.00     .00     .00
0  8    -6.34   -6.33   -6.30   -6.22   -6.02   -5.50   -4.45   -2.86   -1.29    -.49    -.13    -.02    -.00     .00     .00
0  9    -2.34   -2.34   -2.33   -2.31   -2.26   -2.12   -1.82   -1.29    -.66    -.28    -.08    -.02    -.00     .00     .00
0 10     -.78    -.78    -.78    -.78    -.76    -.73    -.64    -.49    -.28    -.13    -.04    -.01     .00     .00     .00
0 11     -.20    -.19    -.19    -.19    -.19    -.18    -.17    -.13    -.08    -.04    -.02    -.00     .00     .00     .00
0 12     -.03    -.03    -.03    -.03    -.03    -.03    -.03    -.02    -.02    -.01    -.00     .00     .00     .00     .00
0 13     -.00    -.00    -.00    -.00    -.00    -.00    -.00    -.00    -.00     .00     .00     .00     .00     .00     .00
0 14      .00     .00     .00     .00     .00     .00     .00     .00     .00     .00     .00     .00     .00     .00     .00
0 15      .00     .00     .00     .00     .00     .00     .00     .00     .00     .00     .00     .00     .00     .00     .00
0 16      .00     .00     .00     .00     .00     .00     .00     .00     .00     .00     .00     .00     .00     .00     .00
0 17      .00     .00     .00     .00     .00     .00     .00     .00     .00     .00     .00     .00     .00     .00     .00
0 18      .00     .00     .00     .00     .00     .00     .00     .00     .00     .00     .00     .00     .00     .00     .00
0 19      .00     .00     .00     .00     .00     .00     .00     .00     .00     .00     .00     .00     .00     .00     .00
0 20      .00     .00     .00     .00     .00     .00     .00     .00     .00     .00     .00     .00     .00     .00     .00
0 21      .00     .00     .00     .00     .00     .00     .00     .00     .00     .00     .00     .00     .00     .00     .00
0 22      .00     .00     .00     .00     .00     .00     .00     .00     .00     .00     .00     .00     .00     .00     .00
0 23      .00     .00     .00     .00     .00     .00     .00     .00     .00     .00     .00     .00     .00     .00     .00
0 24      .00     .00     .00     .00     .00     .00     .00     .00     .00     .00     .00     .00     .00     .00     .00
0 25      .00     .00     .00     .00     .00     .00     .00     .00     .00     .00     .00     .00     .00     .00     .00
1                      HEAD IN LAYER 10 AT END OF TIME STEP  5 IN STRESS PERIOD  1
           -----------------------------------------------------------------------

          16      17      18      19      20      21      22      23      24      25
 ........................................................................................
0  1      .00     .00     .00     .00     .00     .00     .00     .00     .00     .00
0  2      .00     .00     .00     .00     .00     .00     .00     .00     .00     .00
0  3      .00     .00     .00     .00     .00     .00     .00     .00     .00     .00
0  4      .00     .00     .00     .00     .00     .00     .00     .00     .00     .00
0  5      .00     .00     .00     .00     .00     .00     .00     .00     .00     .00
0  6      .00     .00     .00     .00     .00     .00     .00     .00     .00     .00
0  7      .00     .00     .00     .00     .00     .00     .00     .00     .00     .00
0  8      .00     .00     .00     .00     .00     .00     .00     .00     .00     .00
0  9      .00     .00     .00     .00     .00     .00     .00     .00     .00     .00
0 10      .00     .00     .00     .00     .00     .00     .00     .00     .00     .00
0 11      .00     .00     .00     .00     .00     .00     .00     .00     .00     .00
0 12      .00     .00     .00     .00     .00     .00     .00     .00     .00     .00
0 13      .00     .00     .00     .00     .00     .00     .00     .00     .00     .00
0 14      .00     .00     .00     .00     .00     .00     .00     .00     .00     .00
0 15      .00     .00     .00     .00     .00     .00     .00     .00     .00     .00
0 16      .00     .00     .00     .00     .00     .00     .00     .00     .00     .00
0 17      .00     .00     .00     .00     .00     .00     .00     .00     .00     .00
0 18      .00     .00     .00     .00     .00     .00     .00     .00     .00     .00
0 19      .00     .00     .00     .00     .00     .00     .00     .00     .00     .00
0 20      .00     .00     .00     .00     .00     .00     .00     .00     .00     .00
0 21      .00     .00     .00     .00     .00     .00     .00     .00     .00     .00
0 22      .00     .00     .00     .00     .00     .00     .00     .00     .00     .00
0 23      .00     .00     .00     .00     .00     .00     .00     .00     .00     .00
0 24      .00     .00     .00     .00     .00     .00     .00     .00     .00     .00
0 25      .00     .00     .00     .00     .00     .00     .00     .00     .00     .00
0


                              VOLUMETRIC BUDGET FOR ENTIRE MODEL AT END OF TIME STEP  5 IN STRESS PERIOD  1
                              -----------------------------------------------------------------------------
0                   CUMULATIVE VOLUMES      L**3                                     RATES FOR THIS TIME STEP      L**3/T
                    ------------------                                               ------------------------

                          IN:                                                                    IN:
                          ---                                                                    ---
                            STORAGE =    176.51                                                    STORAGE =    1.5708    
                      CONSTANT HEAD =    .26996E-13                                          CONSTANT HEAD =    .65037E-15
                              WELLS =    .00000                                                      WELLS =    .00000    
0                          TOTAL IN =    176.51                                                   TOTAL IN =    1.5708    
0                        OUT:                                                                   OUT:
                         ----                                                                   ----
                            STORAGE =    .00000                                                    STORAGE =    .00000    
                      CONSTANT HEAD =    .00000                                              CONSTANT HEAD =    .00000    
                              WELLS =    176.52                                                      WELLS =    1.5707    
0                         TOTAL OUT =    176.52                                                  TOTAL OUT =    1.5707    
0                          IN - OUT =   -.12238E-01                                               IN - OUT =    .15616E-04
0               PERCENT DISCREPANCY =                -.01                              PERCENT DISCREPANCY =                 .00



0


          TIME SUMMARY AT END OF TIME STEP  5 IN STRESS PERIOD  1
                               SECONDS        MINUTES         HOURS          DAYS           YEARS
                           ---------------------------------------------------------------------------
      TIME STEP LENGTH         39.9761        .666268        .111045E-01    .462686E-03    .126676E-05
    STRESS PERIOD TIME         112.382        1.87303        .312172E-01    .130072E-02    .356117E-05
 TOTAL SIMULATION TIME         112.382        1.87303        .312172E-01    .130072E-02    .356117E-05
1
    14 ITERATIONS FOR TIME STEP   6 IN STRESS PERIOD  1
0MAXIMUM HEAD CHANGE FOR EACH ITERATION:
0 HEAD CHANGE LAYER,ROW,COL HEAD CHANGE LAYER,ROW,COL HEAD CHANGE LAYER,ROW,COL HEAD CHANGE LAYER,ROW,COL HEAD CHANGE LAYER,ROW,COL
 ------------------------------------------------------------------------------------------------------------------------------------
   -6.042     (  8,  1,  1)  -1.096     ( 10,  6,  5)  -2.871     ( 10,  1,  1)   .2011     ( 10,  6,  5)  -.1100     (  9,  5,  1)
   -.2078E-01 ( 10,  1,  5)  -.5235E-01 ( 10,  1,  1)  -.3681E-01 ( 10,  1,  1)  -.4518E-01 ( 10,  4,  1)   .8728E-02 ( 10,  6,  1)
   -.1551E-02 ( 10,  4,  1)  -.2355E-02 ( 10,  2,  2)  -.6921E-02 ( 10,  1,  1)   .8641E-03 ( 10,  5,  4)
0
0HEAD/DRAWDOWN PRINTOUT FLAG = 1     TOTAL BUDGET PRINTOUT FLAG = 1     CELL-BY-CELL FLOW TERM FLAG = 0
 REUSING PREVIOUS VALUES OF IOFLG
1                      HEAD IN LAYER  9 AT END OF TIME STEP  6 IN STRESS PERIOD  1
           -----------------------------------------------------------------------

           1       2       3       4       5       6       7       8       9      10      11      12      13      14      15
 ................................................................................................................................
0  1   -83.28  -63.76  -50.35  -39.82  -30.12  -21.21  -13.58   -7.42   -3.22   -1.29    -.40    -.08    -.01     .00     .00
0  2   -63.76  -57.26  -48.28  -39.13  -29.89  -21.13  -13.55   -7.41   -3.22   -1.28    -.40    -.08    -.01     .00     .00
0  3   -50.35  -48.28  -43.62  -37.08  -29.11  -20.85  -13.46   -7.38   -3.21   -1.28    -.40    -.08    -.01     .00     .00
0  4   -39.82  -39.13  -37.08  -33.29  -27.39  -20.19  -13.22   -7.30   -3.19   -1.28    -.40    -.08    -.01     .00     .00
0  5   -30.12  -29.89  -29.11  -27.39  -23.97  -18.65  -12.62   -7.10   -3.13   -1.26    -.39    -.08    -.01     .00     .00
0  6   -21.21  -21.13  -20.85  -20.19  -18.65  -15.60  -11.23   -6.58   -2.97   -1.21    -.38    -.08    -.01     .00     .00
0  7   -13.58  -13.55  -13.46  -13.22  -12.62  -11.23   -8.75   -5.52   -2.62   -1.10    -.35    -.08    -.01     .00     .00
0  8    -7.42   -7.41   -7.38   -7.30   -7.10   -6.58   -5.52   -3.82   -1.98    -.88    -.30    -.07    -.01     .00     .00
0  9    -3.22   -3.22   -3.21   -3.19   -3.13   -2.97   -2.62   -1.98   -1.15    -.56    -.20    -.05    -.01     .00     .00
0 10    -1.29   -1.28   -1.28   -1.28   -1.26   -1.21   -1.10    -.88    -.56    -.29    -.12    -.03    -.00     .00     .00
0 11     -.40    -.40    -.40    -.40    -.39    -.38    -.35    -.30    -.20    -.12    -.05    -.01    -.00     .00     .00
0 12     -.08    -.08    -.08    -.08    -.08    -.08    -.08    -.07    -.05    -.03    -.01    -.00     .00     .00     .00
0 13     -.01    -.01    -.01    -.01    -.01    -.01    -.01    -.01    -.01    -.00    -.00     .00     .00     .00     .00
0 14      .00     .00     .00     .00     .00     .00     .00     .00     .00     .00     .00     .00     .00     .00     .00
0 15      .00     .00     .00     .00     .00     .00     .00     .00     .00     .00     .00     .00     .00     .00     .00
0 16      .00     .00     .00     .00     .00     .00     .00     .00     .00     .00     .00     .00     .00     .00     .00
0 17      .00     .00     .00     .00     .00     .00     .00     .00     .00     .00     .00     .00     .00     .00     .00
0 18      .00     .00     .00     .00     .00     .00     .00     .00     .00     .00     .00     .00     .00     .00     .00
0 19      .00     .00     .00     .00     .00     .00     .00     .00     .00     .00     .00     .00     .00     .00     .00
0 20      .00     .00     .00     .00     .00     .00     .00     .00     .00     .00     .00     .00     .00     .00     .00
0 21      .00     .00     .00     .00     .00     .00     .00     .00     .00     .00     .00     .00     .00     .00     .00
0 22      .00     .00     .00     .00     .00     .00     .00     .00     .00     .00     .00     .00     .00     .00     .00
0 23      .00     .00     .00     .00     .00     .00     .00     .00     .00     .00     .00     .00     .00     .00     .00
0 24      .00     .00     .00     .00     .00     .00     .00     .00     .00     .00     .00     .00     .00     .00     .00
0 25      .00     .00     .00     .00     .00     .00     .00     .00     .00     .00     .00     .00     .00     .00     .00
1                      HEAD IN LAYER  9 AT END OF TIME STEP  6 IN STRESS PERIOD  1
           -----------------------------------------------------------------------

          16      17      18      19      20      21      22      23      24      25
 ........................................................................................
0  1      .00     .00     .00     .00     .00     .00     .00     .00     .00     .00
0  2      .00     .00     .00     .00     .00     .00     .00     .00     .00     .00
0  3      .00     .00     .00     .00     .00     .00     .00     .00     .00     .00
0  4      .00     .00     .00     .00     .00     .00     .00     .00     .00     .00
0  5      .00     .00     .00     .00     .00     .00     .00     .00     .00     .00
0  6      .00     .00     .00     .00     .00     .00     .00     .00     .00     .00
0  7      .00     .00     .00     .00     .00     .00     .00     .00     .00     .00
0  8      .00     .00     .00     .00     .00     .00     .00     .00     .00     .00
0  9      .00     .00     .00     .00     .00     .00     .00     .00     .00     .00
0 10      .00     .00     .00     .00     .00     .00     .00     .00     .00     .00
0 11      .00     .00     .00     .00     .00     .00     .00     .00     .00     .00
0 12      .00     .00     .00     .00     .00     .00     .00     .00     .00     .00
0 13      .00     .00     .00     .00     .00     .00     .00     .00     .00     .00
0 14      .00     .00     .00     .00     .00     .00     .00     .00     .00     .00
0 15      .00     .00     .00     .00     .00     .00     .00     .00     .00     .00
0 16      .00     .00     .00     .00     .00     .00     .00     .00     .00     .00
0 17      .00     .00     .00     .00     .00     .00     .00     .00     .00     .00
0 18      .00     .00     .00     .00     .00     .00     .00     .00     .00     .00
0 19      .00     .00     .00     .00     .00     .00     .00     .00     .00     .00
0 20      .00     .00     .00     .00     .00     .00     .00     .00     .00     .00
0 21      .00     .00     .00     .00     .00     .00     .00     .00     .00     .00
0 22      .00     .00     .00     .00     .00     .00     .00     .00     .00     .00
0 23      .00     .00     .00     .00     .00     .00     .00     .00     .00     .00
0 24      .00     .00     .00     .00     .00     .00     .00     .00     .00     .00
0 25      .00     .00     .00     .00     .00     .00     .00     .00     .00     .00
1                      HEAD IN LAYER 10 AT END OF TIME STEP  6 IN STRESS PERIOD  1
           -----------------------------------------------------------------------

           1       2       3       4       5       6       7       8       9      10      11      12      13      14      15
 ................................................................................................................................
0  1   -89.13  -69.50  -55.86  -44.93  -34.56  -24.67  -15.95   -8.77   -3.82   -1.53    -.48    -.10    -.01     .00     .00
0  2   -69.50  -62.93  -53.74  -44.20  -34.30  -24.58  -15.92   -8.76   -3.82   -1.53    -.48    -.10    -.01     .00     .00
0  3   -55.86  -53.74  -48.91  -42.03  -33.46  -24.28  -15.80   -8.72   -3.81   -1.53    -.48    -.10    -.01     .00     .00
0  4   -44.93  -44.20  -42.03  -37.98  -31.57  -23.53  -15.53   -8.63   -3.78   -1.52    -.48    -.10    -.01     .00     .00
0  5   -34.56  -34.30  -33.46  -31.57  -27.78  -21.78  -14.83   -8.39   -3.71   -1.50    -.47    -.10    -.01     .00     .00
0  6   -24.67  -24.58  -24.28  -23.53  -21.78  -18.28  -13.22   -7.79   -3.53   -1.44    -.46    -.10    -.01     .00     .00
0  7   -15.95  -15.92  -15.80  -15.53  -14.83  -13.22  -10.33   -6.54   -3.12   -1.31    -.42    -.09    -.01     .00     .00
0  8    -8.77   -8.76   -8.72   -8.63   -8.39   -7.79   -6.54   -4.54   -2.36   -1.05    -.35    -.08    -.01     .00     .00
0  9    -3.82   -3.82   -3.81   -3.78   -3.71   -3.53   -3.12   -2.36   -1.37    -.66    -.24    -.06    -.01     .00     .00
0 10    -1.53   -1.53   -1.53   -1.52   -1.50   -1.44   -1.31   -1.05    -.66    -.35    -.14    -.04    -.01     .00     .00
0 11     -.48    -.48    -.48    -.48    -.47    -.46    -.42    -.35    -.24    -.14    -.06    -.02    -.00     .00     .00
0 12     -.10    -.10    -.10    -.10    -.10    -.10    -.09    -.08    -.06    -.04    -.02    -.01     .00     .00     .00
0 13     -.01    -.01    -.01    -.01    -.01    -.01    -.01    -.01    -.01    -.01    -.00     .00     .00     .00     .00
0 14      .00     .00     .00     .00     .00     .00     .00     .00     .00     .00     .00     .00     .00     .00     .00
0 15      .00     .00     .00     .00     .00     .00     .00     .00     .00     .00     .00     .00     .00     .00     .00
0 16      .00     .00     .00     .00     .00     .00     .00     .00     .00     .00     .00     .00     .00     .00     .00
0 17      .00     .00     .00     .00     .00     .00     .00     .00     .00     .00     .00     .00     .00     .00     .00
0 18      .00     .00     .00     .00     .00     .00     .00     .00     .00     .00     .00     .00     .00     .00     .00
0 19      .00     .00     .00     .00     .00     .00     .00     .00     .00     .00     .00     .00     .00     .00     .00
0 20      .00     .00     .00     .00     .00     .00     .00     .00     .00     .00     .00     .00     .00     .00     .00
0 21      .00     .00     .00     .00     .00     .00     .00     .00     .00     .00     .00     .00     .00     .00     .00
0 22      .00     .00     .00     .00     .00     .00     .00     .00     .00     .00     .00     .00     .00     .00     .00
0 23      .00     .00     .00     .00     .00     .00     .00     .00     .00     .00     .00     .00     .00     .00     .00
0 24      .00     .00     .00     .00     .00     .00     .00     .00     .00     .00     .00     .00     .00     .00     .00
0 25      .00     .00     .00     .00     .00     .00     .00     .00     .00     .00     .00     .00     .00     .00     .00
1                      HEAD IN LAYER 10 AT END OF TIME STEP  6 IN STRESS PERIOD  1
           -----------------------------------------------------------------------

          16      17      18      19      20      21      22      23      24      25
 ........................................................................................
0  1      .00     .00     .00     .00     .00     .00     .00     .00     .00     .00
0  2      .00     .00     .00     .00     .00     .00     .00     .00     .00     .00
0  3      .00     .00     .00     .00     .00     .00     .00     .00     .00     .00
0  4      .00     .00     .00     .00     .00     .00     .00     .00     .00     .00
0  5      .00     .00     .00     .00     .00     .00     .00     .00     .00     .00
0  6      .00     .00     .00     .00     .00     .00     .00     .00     .00     .00
0  7      .00     .00     .00     .00     .00     .00     .00     .00     .00     .00
0  8      .00     .00     .00     .00     .00     .00     .00     .00     .00     .00
0  9      .00     .00     .00     .00     .00     .00     .00     .00     .00     .00
0 10      .00     .00     .00     .00     .00     .00     .00     .00     .00     .00
0 11      .00     .00     .00     .00     .00     .00     .00     .00     .00     .00
0 12      .00     .00     .00     .00     .00     .00     .00     .00     .00     .00
0 13      .00     .00     .00     .00     .00     .00     .00     .00     .00     .00
0 14      .00     .00     .00     .00     .00     .00     .00     .00     .00     .00
0 15      .00     .00     .00     .00     .00     .00     .00     .00     .00     .00
0 16      .00     .00     .00     .00     .00     .00     .00     .00     .00     .00
0 17      .00     .00     .00     .00     .00     .00     .00     .00     .00     .00
0 18      .00     .00     .00     .00     .00     .00     .00     .00     .00     .00
0 19      .00     .00     .00     .00     .00     .00     .00     .00     .00     .00
0 20      .00     .00     .00     .00     .00     .00     .00     .00     .00     .00
0 21      .00     .00     .00     .00     .00     .00     .00     .00     .00     .00
0 22      .00     .00     .00     .00     .00     .00     .00     .00     .00     .00
0 23      .00     .00     .00     .00     .00     .00     .00     .00     .00     .00
0 24      .00     .00     .00     .00     .00     .00     .00     .00     .00     .00
0 25      .00     .00     .00     .00     .00     .00     .00     .00     .00     .00
0


                              VOLUMETRIC BUDGET FOR ENTIRE MODEL AT END OF TIME STEP  6 IN STRESS PERIOD  1
                              -----------------------------------------------------------------------------
0                   CUMULATIVE VOLUMES      L**3                                     RATES FOR THIS TIME STEP      L**3/T
                    ------------------                                               ------------------------

                          IN:                                                                    IN:
                          ---                                                                    ---
                            STORAGE =    265.30                                                    STORAGE =    1.5708    
                      CONSTANT HEAD =    .64857E-12                                          CONSTANT HEAD =    .10996E-13
                              WELLS =    .00000                                                      WELLS =    .00000    
0                          TOTAL IN =    265.30                                                   TOTAL IN =    1.5708    
0                        OUT:                                                                   OUT:
                         ----                                                                   ----
                            STORAGE =    .00000                                                    STORAGE =    .00000    
                      CONSTANT HEAD =    .00000                                              CONSTANT HEAD =    .00000    
                              WELLS =    265.31                                                      WELLS =    1.5707    
0                         TOTAL OUT =    265.31                                                  TOTAL OUT =    1.5707    
0                          IN - OUT =   -.11353E-01                                               IN - OUT =    .15497E-04
0               PERCENT DISCREPANCY =                -.00                              PERCENT DISCREPANCY =                 .00



0


          TIME SUMMARY AT END OF TIME STEP  6 IN STRESS PERIOD  1
                               SECONDS        MINUTES         HOURS          DAYS           YEARS
                           ---------------------------------------------------------------------------
      TIME STEP LENGTH         56.5261        .942102        .157017E-01    .654238E-03    .179121E-05
    STRESS PERIOD TIME         168.908        2.81513        .469189E-01    .195495E-02    .535237E-05
 TOTAL SIMULATION TIME         168.908        2.81513        .469189E-01    .195495E-02    .535237E-05
1
    15 ITERATIONS FOR TIME STEP   7 IN STRESS PERIOD  1
0MAXIMUM HEAD CHANGE FOR EACH ITERATION:
0 HEAD CHANGE LAYER,ROW,COL HEAD CHANGE LAYER,ROW,COL HEAD CHANGE LAYER,ROW,COL HEAD CHANGE LAYER,ROW,COL HEAD CHANGE LAYER,ROW,COL
 ------------------------------------------------------------------------------------------------------------------------------------
   -6.642     (  8,  1,  1)  -.9564     ( 10,  6,  6)  -2.533     ( 10,  1,  1)   .1392     ( 10,  7,  6)  -.1419     ( 10,  5,  1)
    .2139E-01 ( 10,  9,  1)  -.5489E-01 ( 10,  1,  1)  -.4122E-01 ( 10,  1,  1)  -.6129E-01 ( 10,  4,  1)   .1274E-01 ( 10,  6,  1)
   -.1741E-02 ( 10,  4,  1)  -.2717E-02 ( 10,  2,  2)  -.8673E-02 ( 10,  1,  1)   .1136E-02 ( 10,  5,  4)   .6966E-03 ( 10,  1,  1)
0
0HEAD/DRAWDOWN PRINTOUT FLAG = 1     TOTAL BUDGET PRINTOUT FLAG = 1     CELL-BY-CELL FLOW TERM FLAG = 0
 REUSING PREVIOUS VALUES OF IOFLG
1                      HEAD IN LAYER  9 AT END OF TIME STEP  7 IN STRESS PERIOD  1
           -----------------------------------------------------------------------

           1       2       3       4       5       6       7       8       9      10      11      12      13      14      15
 ................................................................................................................................
0  1   -86.83  -67.30  -53.87  -43.27  -33.45  -24.33  -16.36   -9.68   -4.77   -2.20    -.83    -.22    -.03    -.00     .00
0  2   -67.30  -60.80  -51.79  -42.57  -33.21  -24.24  -16.33   -9.67   -4.76   -2.20    -.83    -.22    -.03    -.00     .00
0  3   -53.87  -51.79  -47.10  -40.50  -32.42  -23.96  -16.23   -9.64   -4.75   -2.19    -.83    -.22    -.03    -.00     .00
0  4   -43.27  -42.57  -40.50  -36.67  -30.67  -23.28  -15.98   -9.55   -4.72   -2.18    -.82    -.22    -.03    -.00     .00
0  5   -33.45  -33.21  -32.42  -30.67  -27.17  -21.68  -15.34   -9.32   -4.65   -2.16    -.82    -.22    -.03    -.00     .00
0  6   -24.33  -24.24  -23.96  -23.28  -21.68  -18.49  -13.86   -8.74   -4.46   -2.09    -.80    -.22    -.03    -.00     .00
0  7   -16.36  -16.33  -16.23  -15.98  -15.34  -13.86  -11.17   -7.53   -4.02   -1.93    -.75    -.21    -.03    -.00     .00
0  8    -9.68   -9.67   -9.64   -9.55   -9.32   -8.74   -7.53   -5.52   -3.19   -1.61    -.65    -.18    -.03    -.00     .00
0  9    -4.77   -4.76   -4.75   -4.72   -4.65   -4.46   -4.02   -3.19   -2.03   -1.11    -.48    -.14    -.02    -.00     .00
0 10    -2.20   -2.20   -2.19   -2.18   -2.16   -2.09   -1.93   -1.61   -1.11    -.65    -.30    -.10    -.02    -.00     .00
0 11     -.83    -.83    -.83    -.82    -.82    -.80    -.75    -.65    -.48    -.30    -.15    -.05    -.01    -.00     .00
0 12     -.22    -.22    -.22    -.22    -.22    -.22    -.21    -.18    -.14    -.10    -.05    -.02    -.00     .00     .00
0 13     -.03    -.03    -.03    -.03    -.03    -.03    -.03    -.03    -.02    -.02    -.01    -.00    -.00     .00     .00
0 14     -.00    -.00    -.00    -.00    -.00    -.00    -.00    -.00    -.00    -.00    -.00     .00     .00     .00     .00
0 15      .00     .00     .00     .00     .00     .00     .00     .00     .00     .00     .00     .00     .00     .00     .00
0 16      .00     .00     .00     .00     .00     .00     .00     .00     .00     .00     .00     .00     .00     .00     .00
0 17      .00     .00     .00     .00     .00     .00     .00     .00     .00     .00     .00     .00     .00     .00     .00
0 18      .00     .00     .00     .00     .00     .00     .00     .00     .00     .00     .00     .00     .00     .00     .00
0 19      .00     .00     .00     .00     .00     .00     .00     .00     .00     .00     .00     .00     .00     .00     .00
0 20      .00     .00     .00     .00     .00     .00     .00     .00     .00     .00     .00     .00     .00     .00     .00
0 21      .00     .00     .00     .00     .00     .00     .00     .00     .00     .00     .00     .00     .00     .00     .00
0 22      .00     .00     .00     .00     .00     .00     .00     .00     .00     .00     .00     .00     .00     .00     .00
0 23      .00     .00     .00     .00     .00     .00     .00     .00     .00     .00     .00     .00     .00     .00     .00
0 24      .00     .00     .00     .00     .00     .00     .00     .00     .00     .00     .00     .00     .00     .00     .00
0 25      .00     .00     .00     .00     .00     .00     .00     .00     .00     .00     .00     .00     .00     .00     .00
1                      HEAD IN LAYER  9 AT END OF TIME STEP  7 IN STRESS PERIOD  1
           -----------------------------------------------------------------------

          16      17      18      19      20      21      22      23      24      25
 ........................................................................................
0  1      .00     .00     .00     .00     .00     .00     .00     .00     .00     .00
0  2      .00     .00     .00     .00     .00     .00     .00     .00     .00     .00
0  3      .00     .00     .00     .00     .00     .00     .00     .00     .00     .00
0  4      .00     .00     .00     .00     .00     .00     .00     .00     .00     .00
0  5      .00     .00     .00     .00     .00     .00     .00     .00     .00     .00
0  6      .00     .00     .00     .00     .00     .00     .00     .00     .00     .00
0  7      .00     .00     .00     .00     .00     .00     .00     .00     .00     .00
0  8      .00     .00     .00     .00     .00     .00     .00     .00     .00     .00
0  9      .00     .00     .00     .00     .00     .00     .00     .00     .00     .00
0 10      .00     .00     .00     .00     .00     .00     .00     .00     .00     .00
0 11      .00     .00     .00     .00     .00     .00     .00     .00     .00     .00
0 12      .00     .00     .00     .00     .00     .00     .00     .00     .00     .00
0 13      .00     .00     .00     .00     .00     .00     .00     .00     .00     .00
0 14      .00     .00     .00     .00     .00     .00     .00     .00     .00     .00
0 15      .00     .00     .00     .00     .00     .00     .00     .00     .00     .00
0 16      .00     .00     .00     .00     .00     .00     .00     .00     .00     .00
0 17      .00     .00     .00     .00     .00     .00     .00     .00     .00     .00
0 18      .00     .00     .00     .00     .00     .00     .00     .00     .00     .00
0 19      .00     .00     .00     .00     .00     .00     .00     .00     .00     .00
0 20      .00     .00     .00     .00     .00     .00     .00     .00     .00     .00
0 21      .00     .00     .00     .00     .00     .00     .00     .00     .00     .00
0 22      .00     .00     .00     .00     .00     .00     .00     .00     .00     .00
0 23      .00     .00     .00     .00     .00     .00     .00     .00     .00     .00
0 24      .00     .00     .00     .00     .00     .00     .00     .00     .00     .00
0 25      .00     .00     .00     .00     .00     .00     .00     .00     .00     .00
1                      HEAD IN LAYER 10 AT END OF TIME STEP  7 IN STRESS PERIOD  1
           -----------------------------------------------------------------------

           1       2       3       4       5       6       7       8       9      10      11      12      13      14      15
 ................................................................................................................................
0  1   -92.45  -72.82  -59.17  -48.23  -37.82  -27.84  -18.89  -11.25   -5.57   -2.58    -.98    -.26    -.04    -.00     .00
0  2   -72.82  -66.24  -57.05  -47.49  -37.56  -27.75  -18.85  -11.24   -5.57   -2.58    -.98    -.26    -.04    -.00     .00
0  3   -59.17  -57.05  -52.21  -45.32  -36.71  -27.43  -18.74  -11.20   -5.56   -2.58    -.97    -.26    -.04    -.00     .00
0  4   -48.23  -47.49  -45.32  -41.26  -34.81  -26.67  -18.45  -11.10   -5.52   -2.57    -.97    -.26    -.04    -.00     .00
0  5   -37.82  -37.56  -36.71  -34.81  -30.98  -24.89  -17.73  -10.84   -5.44   -2.54    -.96    -.26    -.04    -.00     .00
0  6   -27.84  -27.75  -27.43  -26.67  -24.89  -21.30  -16.04  -10.17   -5.21   -2.46    -.94    -.26    -.04    -.00     .00
0  7   -18.89  -18.85  -18.74  -18.45  -17.73  -16.04  -12.96   -8.77   -4.70   -2.27    -.88    -.24    -.04    -.00     .00
0  8   -11.25  -11.24  -11.20  -11.10  -10.84  -10.17   -8.77   -6.45   -3.74   -1.90    -.77    -.22    -.03    -.00     .00
0  9    -5.57   -5.57   -5.56   -5.52   -5.44   -5.21   -4.70   -3.74   -2.39   -1.31    -.57    -.17    -.03    -.00     .00
0 10    -2.58   -2.58   -2.58   -2.57   -2.54   -2.46   -2.27   -1.90   -1.31    -.77    -.36    -.11    -.02    -.00     .00
0 11     -.98    -.98    -.97    -.97    -.96    -.94    -.88    -.77    -.57    -.36    -.18    -.06    -.01    -.00     .00
0 12     -.26    -.26    -.26    -.26    -.26    -.26    -.24    -.22    -.17    -.11    -.06    -.02    -.01     .00     .00
0 13     -.04    -.04    -.04    -.04    -.04    -.04    -.04    -.03    -.03    -.02    -.01    -.01    -.00     .00     .00
0 14     -.00    -.00    -.00    -.00    -.00    -.00    -.00    -.00    -.00    -.00    -.00     .00     .00     .00     .00
0 15      .00     .00     .00     .00     .00     .00     .00     .00     .00     .00     .00     .00     .00     .00     .00
0 16      .00     .00     .00     .00     .00     .00     .00     .00     .00     .00     .00     .00     .00     .00     .00
0 17      .00     .00     .00     .00     .00     .00     .00     .00     .00     .00     .00     .00     .00     .00     .00
0 18      .00     .00     .00     .00     .00     .00     .00     .00     .00     .00     .00     .00     .00     .00     .00
0 19      .00     .00     .00     .00     .00     .00     .00     .00     .00     .00     .00     .00     .00     .00     .00
0 20      .00     .00     .00     .00     .00     .00     .00     .00     .00     .00     .00     .00     .00     .00     .00
0 21      .00     .00     .00     .00     .00     .00     .00     .00     .00     .00     .00     .00     .00     .00     .00
0 22      .00     .00     .00     .00     .00     .00     .00     .00     .00     .00     .00     .00     .00     .00     .00
0 23      .00     .00     .00     .00     .00     .00     .00     .00     .00     .00     .00     .00     .00     .00     .00
0 24      .00     .00     .00     .00     .00     .00     .00     .00     .00     .00     .00     .00     .00     .00     .00
0 25      .00     .00     .00     .00     .00     .00     .00     .00     .00     .00     .00     .00     .00     .00     .00
1                      HEAD IN LAYER 10 AT END OF TIME STEP  7 IN STRESS PERIOD  1
           -----------------------------------------------------------------------

          16      17      18      19      20      21      22      23      24      25
 ........................................................................................
0  1      .00     .00     .00     .00     .00     .00     .00     .00     .00     .00
0  2      .00     .00     .00     .00     .00     .00     .00     .00     .00     .00
0  3      .00     .00     .00     .00     .00     .00     .00     .00     .00     .00
0  4      .00     .00     .00     .00     .00     .00     .00     .00     .00     .00
0  5      .00     .00     .00     .00     .00     .00     .00     .00     .00     .00
0  6      .00     .00     .00     .00     .00     .00     .00     .00     .00     .00
0  7      .00     .00     .00     .00     .00     .00     .00     .00     .00     .00
0  8      .00     .00     .00     .00     .00     .00     .00     .00     .00     .00
0  9      .00     .00     .00     .00     .00     .00     .00     .00     .00     .00
0 10      .00     .00     .00     .00     .00     .00     .00     .00     .00     .00
0 11      .00     .00     .00     .00     .00     .00     .00     .00     .00     .00
0 12      .00     .00     .00     .00     .00     .00     .00     .00     .00     .00
0 13      .00     .00     .00     .00     .00     .00     .00     .00     .00     .00
0 14      .00     .00     .00     .00     .00     .00     .00     .00     .00     .00
0 15      .00     .00     .00     .00     .00     .00     .00     .00     .00     .00
0 16      .00     .00     .00     .00     .00     .00     .00     .00     .00     .00
0 17      .00     .00     .00     .00     .00     .00     .00     .00     .00     .00
0 18      .00     .00     .00     .00     .00     .00     .00     .00     .00     .00
0 19      .00     .00     .00     .00     .00     .00     .00     .00     .00     .00
0 20      .00     .00     .00     .00     .00     .00     .00     .00     .00     .00
0 21      .00     .00     .00     .00     .00     .00     .00     .00     .00     .00
0 22      .00     .00     .00     .00     .00     .00     .00     .00     .00     .00
0 23      .00     .00     .00     .00     .00     .00     .00     .00     .00     .00
0 24      .00     .00     .00     .00     .00     .00     .00     .00     .00     .00
0 25      .00     .00     .00     .00     .00     .00     .00     .00     .00     .00
0


                              VOLUMETRIC BUDGET FOR ENTIRE MODEL AT END OF TIME STEP  7 IN STRESS PERIOD  1
                              -----------------------------------------------------------------------------
0                   CUMULATIVE VOLUMES      L**3                                     RATES FOR THIS TIME STEP      L**3/T
                    ------------------                                               ------------------------

                          IN:                                                                    IN:
                          ---                                                                    ---
                            STORAGE =    390.84                                                    STORAGE =    1.5707    
                      CONSTANT HEAD =    .14128E-10                                          CONSTANT HEAD =    .16864E-12
                              WELLS =    .00000                                                      WELLS =    .00000    
0                          TOTAL IN =    390.84                                                   TOTAL IN =    1.5707    
0                        OUT:                                                                   OUT:
                         ----                                                                   ----
                            STORAGE =    .00000                                                    STORAGE =    .00000    
                      CONSTANT HEAD =    .00000                                              CONSTANT HEAD =    .00000    
                              WELLS =    390.86                                                      WELLS =    1.5707    
0                         TOTAL OUT =    390.86                                                  TOTAL OUT =    1.5707    
0                          IN - OUT =   -.15289E-01                                               IN - OUT =   -.49233E-04
0               PERCENT DISCREPANCY =                -.00                              PERCENT DISCREPANCY =                -.00



0


          TIME SUMMARY AT END OF TIME STEP  7 IN STRESS PERIOD  1
                               SECONDS        MINUTES         HOURS          DAYS           YEARS
                           ---------------------------------------------------------------------------
      TIME STEP LENGTH         79.9280        1.33213        .222022E-01    .925092E-03    .253276E-05
    STRESS PERIOD TIME         248.836        4.14727        .691211E-01    .288005E-02    .788514E-05
 TOTAL SIMULATION TIME         248.836        4.14727        .691211E-01    .288005E-02    .788514E-05
1
    15 ITERATIONS FOR TIME STEP   8 IN STRESS PERIOD  1
0MAXIMUM HEAD CHANGE FOR EACH ITERATION:
0 HEAD CHANGE LAYER,ROW,COL HEAD CHANGE LAYER,ROW,COL HEAD CHANGE LAYER,ROW,COL HEAD CHANGE LAYER,ROW,COL HEAD CHANGE LAYER,ROW,COL
 ------------------------------------------------------------------------------------------------------------------------------------
   -6.752     (  8,  1,  1)  -.8482     ( 10,  7,  6)  -2.343     (  9,  1,  1)  -.1760     ( 10,  1,  1)  -.1874     ( 10,  6,  1)
    .2754E-01 ( 10,  9,  1)  -.5547E-01 ( 10,  1,  1)  -.4350E-01 ( 10,  1,  1)  -.7760E-01 ( 10,  4,  1)   .1713E-01 ( 10,  6,  1)
   -.1853E-02 ( 10,  4,  1)  -.2956E-02 ( 10,  2,  2)  -.1009E-01 ( 10,  1,  1)   .1411E-02 ( 10,  5,  5)   .9130E-03 ( 10,  1,  1)
0
0HEAD/DRAWDOWN PRINTOUT FLAG = 1     TOTAL BUDGET PRINTOUT FLAG = 1     CELL-BY-CELL FLOW TERM FLAG = 0
 REUSING PREVIOUS VALUES OF IOFLG
1                      HEAD IN LAYER  9 AT END OF TIME STEP  8 IN STRESS PERIOD  1
           -----------------------------------------------------------------------

           1       2       3       4       5       6       7       8       9      10      11      12      13      14      15
 ................................................................................................................................
0  1   -90.30  -70.76  -57.30  -46.65  -36.71  -27.40  -19.14  -12.04   -6.53   -3.37   -1.48    -.49    -.10    -.01     .00
0  2   -70.76  -64.25  -55.21  -45.94  -36.47  -27.31  -19.11  -12.03   -6.53   -3.37   -1.48    -.49    -.10    -.01     .00
0  3   -57.30  -55.21  -50.50  -43.85  -35.67  -27.02  -19.01  -11.99   -6.51   -3.37   -1.48    -.49    -.10    -.01     .00
0  4   -46.65  -45.94  -43.85  -39.97  -33.88  -26.31  -18.74  -11.90   -6.48   -3.36   -1.48    -.49    -.10    -.01     .00
0  5   -36.71  -36.47  -35.67  -33.88  -30.31  -24.67  -18.07  -11.65   -6.39   -3.32   -1.46    -.48    -.10    -.01     .00
0  6   -27.40  -27.31  -27.02  -26.31  -24.67  -21.37  -16.51  -11.01   -6.17   -3.24   -1.44    -.47    -.10    -.01     .00
0  7   -19.14  -19.11  -19.01  -18.74  -18.07  -16.51  -13.64   -9.67   -5.65   -3.03   -1.36    -.46    -.09    -.01     .00
0  8   -12.04  -12.03  -11.99  -11.90  -11.65  -11.01   -9.67   -7.41   -4.65   -2.61   -1.21    -.42    -.09    -.01     .00
0  9    -6.53   -6.53   -6.51   -6.48   -6.39   -6.17   -5.65   -4.65   -3.18   -1.91    -.94    -.34    -.07    -.01     .00
0 10    -3.37   -3.37   -3.37   -3.36   -3.32   -3.24   -3.03   -2.61   -1.91   -1.23    -.65    -.25    -.06    -.01     .00
0 11    -1.48   -1.48   -1.48   -1.48   -1.46   -1.44   -1.37   -1.21    -.94    -.65    -.37    -.15    -.04    -.00     .00
0 12     -.49    -.49    -.49    -.49    -.48    -.47    -.46    -.42    -.34    -.25    -.15    -.07    -.02    -.00     .00
0 13     -.10    -.10    -.10    -.10    -.10    -.10    -.09    -.09    -.07    -.06    -.04    -.02    -.01     .00     .00
0 14     -.01    -.01    -.01    -.01    -.01    -.01    -.01    -.01    -.01    -.01    -.00    -.00     .00     .00     .00
0 15      .00     .00     .00     .00     .00     .00     .00     .00     .00     .00     .00     .00     .00     .00     .00
0 16      .00     .00     .00     .00     .00     .00     .00     .00     .00     .00     .00     .00     .00     .00     .00
0 17      .00     .00     .00     .00     .00     .00     .00     .00     .00     .00     .00     .00     .00     .00     .00
0 18      .00     .00     .00     .00     .00     .00     .00     .00     .00     .00     .00     .00     .00     .00     .00
0 19      .00     .00     .00     .00     .00     .00     .00     .00     .00     .00     .00     .00     .00     .00     .00
0 20      .00     .00     .00     .00     .00     .00     .00     .00     .00     .00     .00     .00     .00     .00     .00
0 21      .00     .00     .00     .00     .00     .00     .00     .00     .00     .00     .00     .00     .00     .00     .00
0 22      .00     .00     .00     .00     .00     .00     .00     .00     .00     .00     .00     .00     .00     .00     .00
0 23      .00     .00     .00     .00     .00     .00     .00     .00     .00     .00     .00     .00     .00     .00     .00
0 24      .00     .00     .00     .00     .00     .00     .00     .00     .00     .00     .00     .00     .00     .00     .00
0 25      .00     .00     .00     .00     .00     .00     .00     .00     .00     .00     .00     .00     .00     .00     .00
1                      HEAD IN LAYER  9 AT END OF TIME STEP  8 IN STRESS PERIOD  1
           -----------------------------------------------------------------------

          16      17      18      19      20      21      22      23      24      25
 ........................................................................................
0  1      .00     .00     .00     .00     .00     .00     .00     .00     .00     .00
0  2      .00     .00     .00     .00     .00     .00     .00     .00     .00     .00
0  3      .00     .00     .00     .00     .00     .00     .00     .00     .00     .00
0  4      .00     .00     .00     .00     .00     .00     .00     .00     .00     .00
0  5      .00     .00     .00     .00     .00     .00     .00     .00     .00     .00
0  6      .00     .00     .00     .00     .00     .00     .00     .00     .00     .00
0  7      .00     .00     .00     .00     .00     .00     .00     .00     .00     .00
0  8      .00     .00     .00     .00     .00     .00     .00     .00     .00     .00
0  9      .00     .00     .00     .00     .00     .00     .00     .00     .00     .00
0 10      .00     .00     .00     .00     .00     .00     .00     .00     .00     .00
0 11      .00     .00     .00     .00     .00     .00     .00     .00     .00     .00
0 12      .00     .00     .00     .00     .00     .00     .00     .00     .00     .00
0 13      .00     .00     .00     .00     .00     .00     .00     .00     .00     .00
0 14      .00     .00     .00     .00     .00     .00     .00     .00     .00     .00
0 15      .00     .00     .00     .00     .00     .00     .00     .00     .00     .00
0 16      .00     .00     .00     .00     .00     .00     .00     .00     .00     .00
0 17      .00     .00     .00     .00     .00     .00     .00     .00     .00     .00
0 18      .00     .00     .00     .00     .00     .00     .00     .00     .00     .00
0 19      .00     .00     .00     .00     .00     .00     .00     .00     .00     .00
0 20      .00     .00     .00     .00     .00     .00     .00     .00     .00     .00
0 21      .00     .00     .00     .00     .00     .00     .00     .00     .00     .00
0 22      .00     .00     .00     .00     .00     .00     .00     .00     .00     .00
0 23      .00     .00     .00     .00     .00     .00     .00     .00     .00     .00
0 24      .00     .00     .00     .00     .00     .00     .00     .00     .00     .00
0 25      .00     .00     .00     .00     .00     .00     .00     .00     .00     .00
1                      HEAD IN LAYER 10 AT END OF TIME STEP  8 IN STRESS PERIOD  1
           -----------------------------------------------------------------------

           1       2       3       4       5       6       7       8       9      10      11      12      13      14      15
 ................................................................................................................................
0  1   -95.51  -75.88  -62.23  -51.27  -40.83  -30.79  -21.68  -13.72   -7.49   -3.89   -1.72    -.57    -.11    -.01     .00
0  2   -75.88  -69.30  -60.10  -50.54  -40.58  -30.69  -21.64  -13.71   -7.49   -3.89   -1.72    -.57    -.11    -.01     .00
0  3   -62.23  -60.10  -55.26  -48.36  -39.72  -30.38  -21.53  -13.67   -7.47   -3.89   -1.72    -.57    -.11    -.01     .00
0  4   -51.27  -50.54  -48.36  -44.29  -37.81  -29.61  -21.23  -13.56   -7.44   -3.87   -1.71    -.57    -.11    -.01     .00
0  5   -40.83  -40.58  -39.72  -37.81  -33.96  -27.80  -20.49  -13.28   -7.34   -3.83   -1.70    -.56    -.11    -.01     .00
0  6   -30.79  -30.69  -30.38  -29.61  -27.80  -24.15  -18.74  -12.57   -7.08   -3.74   -1.66    -.55    -.11    -.01     .00
0  7   -21.68  -21.64  -21.53  -21.23  -20.49  -18.74  -15.53  -11.05   -6.49   -3.50   -1.58    -.53    -.11    -.01     .00
0  8   -13.72  -13.71  -13.67  -13.56  -13.28  -12.57  -11.05   -8.49   -5.35   -3.01   -1.41    -.49    -.10    -.01     .00
0  9    -7.49   -7.49   -7.47   -7.44   -7.34   -7.08   -6.49   -5.35   -3.68   -2.22   -1.10    -.40    -.09    -.01     .00
0 10    -3.89   -3.89   -3.89   -3.87   -3.83   -3.74   -3.50   -3.01   -2.22   -1.42    -.75    -.29    -.07    -.01     .00
0 11    -1.72   -1.72   -1.72   -1.71   -1.70   -1.66   -1.58   -1.41   -1.10    -.75    -.43    -.18    -.04    -.01     .00
0 12     -.57    -.57    -.57    -.57    -.56    -.55    -.53    -.49    -.40    -.29    -.18    -.08    -.02    -.00     .00
0 13     -.11    -.11    -.11    -.11    -.11    -.11    -.11    -.10    -.09    -.07    -.04    -.02    -.01    -.00     .00
0 14     -.01    -.01    -.01    -.01    -.01    -.01    -.01    -.01    -.01    -.01    -.01    -.00    -.00     .00     .00
0 15      .00     .00     .00     .00     .00     .00     .00     .00     .00     .00     .00     .00     .00     .00     .00
0 16      .00     .00     .00     .00     .00     .00     .00     .00     .00     .00     .00     .00     .00     .00     .00
0 17      .00     .00     .00     .00     .00     .00     .00     .00     .00     .00     .00     .00     .00     .00     .00
0 18      .00     .00     .00     .00     .00     .00     .00     .00     .00     .00     .00     .00     .00     .00     .00
0 19      .00     .00     .00     .00     .00     .00     .00     .00     .00     .00     .00     .00     .00     .00     .00
0 20      .00     .00     .00     .00     .00     .00     .00     .00     .00     .00     .00     .00     .00     .00     .00
0 21      .00     .00     .00     .00     .00     .00     .00     .00     .00     .00     .00     .00     .00     .00     .00
0 22      .00     .00     .00     .00     .00     .00     .00     .00     .00     .00     .00     .00     .00     .00     .00
0 23      .00     .00     .00     .00     .00     .00     .00     .00     .00     .00     .00     .00     .00     .00     .00
0 24      .00     .00     .00     .00     .00     .00     .00     .00     .00     .00     .00     .00     .00     .00     .00
0 25      .00     .00     .00     .00     .00     .00     .00     .00     .00     .00     .00     .00     .00     .00     .00
1                      HEAD IN LAYER 10 AT END OF TIME STEP  8 IN STRESS PERIOD  1
           -----------------------------------------------------------------------

          16      17      18      19      20      21      22      23      24      25
 ........................................................................................
0  1      .00     .00     .00     .00     .00     .00     .00     .00     .00     .00
0  2      .00     .00     .00     .00     .00     .00     .00     .00     .00     .00
0  3      .00     .00     .00     .00     .00     .00     .00     .00     .00     .00
0  4      .00     .00     .00     .00     .00     .00     .00     .00     .00     .00
0  5      .00     .00     .00     .00     .00     .00     .00     .00     .00     .00
0  6      .00     .00     .00     .00     .00     .00     .00     .00     .00     .00
0  7      .00     .00     .00     .00     .00     .00     .00     .00     .00     .00
0  8      .00     .00     .00     .00     .00     .00     .00     .00     .00     .00
0  9      .00     .00     .00     .00     .00     .00     .00     .00     .00     .00
0 10      .00     .00     .00     .00     .00     .00     .00     .00     .00     .00
0 11      .00     .00     .00     .00     .00     .00     .00     .00     .00     .00
0 12      .00     .00     .00     .00     .00     .00     .00     .00     .00     .00
0 13      .00     .00     .00     .00     .00     .00     .00     .00     .00     .00
0 14      .00     .00     .00     .00     .00     .00     .00     .00     .00     .00
0 15      .00     .00     .00     .00     .00     .00     .00     .00     .00     .00
0 16      .00     .00     .00     .00     .00     .00     .00     .00     .00     .00
0 17      .00     .00     .00     .00     .00     .00     .00     .00     .00     .00
0 18      .00     .00     .00     .00     .00     .00     .00     .00     .00     .00
0 19      .00     .00     .00     .00     .00     .00     .00     .00     .00     .00
0 20      .00     .00     .00     .00     .00     .00     .00     .00     .00     .00
0 21      .00     .00     .00     .00     .00     .00     .00     .00     .00     .00
0 22      .00     .00     .00     .00     .00     .00     .00     .00     .00     .00
0 23      .00     .00     .00     .00     .00     .00     .00     .00     .00     .00
0 24      .00     .00     .00     .00     .00     .00     .00     .00     .00     .00
0 25      .00     .00     .00     .00     .00     .00     .00     .00     .00     .00
0


                              VOLUMETRIC BUDGET FOR ENTIRE MODEL AT END OF TIME STEP  8 IN STRESS PERIOD  1
                              -----------------------------------------------------------------------------
0                   CUMULATIVE VOLUMES      L**3                                     RATES FOR THIS TIME STEP      L**3/T
                    ------------------                                               ------------------------

                          IN:                                                                    IN:
                          ---                                                                    ---
                            STORAGE =    568.36                                                    STORAGE =    1.5707    
                      CONSTANT HEAD =    .28142E-09                                          CONSTANT HEAD =    .23651E-11
                              WELLS =    .00000                                                      WELLS =    .00000    
0                          TOTAL IN =    568.36                                                   TOTAL IN =    1.5707    
0                        OUT:                                                                   OUT:
                         ----                                                                   ----
                            STORAGE =    .00000                                                    STORAGE =    .00000    
                      CONSTANT HEAD =    .00000                                              CONSTANT HEAD =    .00000    
                              WELLS =    568.38                                                      WELLS =    1.5707    
0                         TOTAL OUT =    568.38                                                  TOTAL OUT =    1.5707    
0                          IN - OUT =   -.22400E-01                                               IN - OUT =   -.62823E-04
0               PERCENT DISCREPANCY =                -.00                              PERCENT DISCREPANCY =                -.00



0


          TIME SUMMARY AT END OF TIME STEP  8 IN STRESS PERIOD  1
                               SECONDS        MINUTES         HOURS          DAYS           YEARS
                           ---------------------------------------------------------------------------
      TIME STEP LENGTH         113.018        1.88364        .313939E-01    .130808E-02    .358133E-05
    STRESS PERIOD TIME         361.854        6.03090        .100515        .418813E-02    .114665E-04
 TOTAL SIMULATION TIME         361.854        6.03090        .100515        .418813E-02    .114665E-04
1
    16 ITERATIONS FOR TIME STEP   9 IN STRESS PERIOD  1
0MAXIMUM HEAD CHANGE FOR EACH ITERATION:
0 HEAD CHANGE LAYER,ROW,COL HEAD CHANGE LAYER,ROW,COL HEAD CHANGE LAYER,ROW,COL HEAD CHANGE LAYER,ROW,COL HEAD CHANGE LAYER,ROW,COL
 ------------------------------------------------------------------------------------------------------------------------------------
   -6.293     (  8,  1,  1)  -.7572     ( 10,  7,  6)  -2.197     (  9,  1,  1)  -.2542     ( 10,  1,  1)  -.2389     ( 10,  6,  1)
    .3283E-01 ( 10,  9,  1)  -.5446E-01 ( 10,  1,  1)  -.4333E-01 ( 10,  1,  1)  -.9231E-01 ( 10,  4,  1)   .2144E-01 ( 10,  6,  1)
   -.2184E-02 (  8,  5,  4)  -.3081E-02 ( 10,  2,  2)  -.1110E-01 ( 10,  1,  1)   .1679E-02 ( 10,  5,  5)   .1142E-02 ( 10,  1,  1)
   -.1298E-03 ( 10,  7,  2)
0
0HEAD/DRAWDOWN PRINTOUT FLAG = 1     TOTAL BUDGET PRINTOUT FLAG = 1     CELL-BY-CELL FLOW TERM FLAG = 0
 REUSING PREVIOUS VALUES OF IOFLG
1                      HEAD IN LAYER  9 AT END OF TIME STEP  9 IN STRESS PERIOD  1
           -----------------------------------------------------------------------

           1       2       3       4       5       6       7       8       9      10      11      12      13      14      15
 ................................................................................................................................
0  1   -93.68  -74.13  -60.64  -49.94  -39.91  -30.42  -21.92  -14.46   -8.45   -4.78   -2.37    -.92    -.23    -.03    -.00
0  2   -74.13  -67.61  -58.55  -49.23  -39.66  -30.34  -21.89  -14.45   -8.45   -4.77   -2.37    -.92    -.23    -.03    -.00
0  3   -60.64  -58.55  -53.82  -47.13  -38.85  -30.04  -21.78  -14.41   -8.44   -4.77   -2.37    -.92    -.23    -.03    -.00
0  4   -49.94  -49.23  -47.13  -43.21  -37.03  -29.32  -21.50  -14.31   -8.40   -4.75   -2.36    -.92    -.23    -.03    -.00
0  5   -39.91  -39.66  -38.85  -37.03  -33.40  -27.63  -20.81  -14.04   -8.30   -4.71   -2.35    -.91    -.23    -.03    -.00
0  6   -30.42  -30.34  -30.04  -29.32  -27.63  -24.23  -19.18  -13.36   -8.05   -4.61   -2.31    -.90    -.23    -.03    -.00
0  7   -21.92  -21.89  -21.78  -21.50  -20.81  -19.18  -16.16  -11.92   -7.46   -4.36   -2.21    -.87    -.22    -.03    -.00
0  8   -14.46  -14.45  -14.41  -14.31  -14.04  -13.36  -11.92   -9.44   -6.31   -3.84   -2.01    -.81    -.21    -.03    -.00
0  9    -8.45   -8.45   -8.44   -8.40   -8.30   -8.05   -7.46   -6.31   -4.57   -2.96   -1.63    -.69    -.18    -.03    -.00
0 10    -4.78   -4.77   -4.77   -4.75   -4.71   -4.61   -4.36   -3.84   -2.96   -2.03   -1.18    -.53    -.15    -.02    -.00
0 11    -2.37   -2.37   -2.37   -2.36   -2.35   -2.31   -2.21   -2.01   -1.63   -1.18    -.74    -.35    -.11    -.02    -.00
0 12     -.92    -.92    -.92    -.92    -.91    -.90    -.87    -.81    -.69    -.53    -.35    -.18    -.06    -.01     .00
0 13     -.23    -.23    -.23    -.23    -.23    -.23    -.22    -.21    -.18    -.15    -.11    -.06    -.02    -.00     .00
0 14     -.03    -.03    -.03    -.03    -.03    -.03    -.03    -.03    -.03    -.02    -.02    -.01    -.00    -.00     .00
0 15     -.00    -.00    -.00    -.00    -.00    -.00    -.00    -.00    -.00    -.00    -.00     .00     .00     .00     .00
0 16      .00     .00     .00     .00     .00     .00     .00     .00     .00     .00     .00     .00     .00     .00     .00
0 17      .00     .00     .00     .00     .00     .00     .00     .00     .00     .00     .00     .00     .00     .00     .00
0 18      .00     .00     .00     .00     .00     .00     .00     .00     .00     .00     .00     .00     .00     .00     .00
0 19      .00     .00     .00     .00     .00     .00     .00     .00     .00     .00     .00     .00     .00     .00     .00
0 20      .00     .00     .00     .00     .00     .00     .00     .00     .00     .00     .00     .00     .00     .00     .00
0 21      .00     .00     .00     .00     .00     .00     .00     .00     .00     .00     .00     .00     .00     .00     .00
0 22      .00     .00     .00     .00     .00     .00     .00     .00     .00     .00     .00     .00     .00     .00     .00
0 23      .00     .00     .00     .00     .00     .00     .00     .00     .00     .00     .00     .00     .00     .00     .00
0 24      .00     .00     .00     .00     .00     .00     .00     .00     .00     .00     .00     .00     .00     .00     .00
0 25      .00     .00     .00     .00     .00     .00     .00     .00     .00     .00     .00     .00     .00     .00     .00
1                      HEAD IN LAYER  9 AT END OF TIME STEP  9 IN STRESS PERIOD  1
           -----------------------------------------------------------------------

          16      17      18      19      20      21      22      23      24      25
 ........................................................................................
0  1      .00     .00     .00     .00     .00     .00     .00     .00     .00     .00
0  2      .00     .00     .00     .00     .00     .00     .00     .00     .00     .00
0  3      .00     .00     .00     .00     .00     .00     .00     .00     .00     .00
0  4      .00     .00     .00     .00     .00     .00     .00     .00     .00     .00
0  5      .00     .00     .00     .00     .00     .00     .00     .00     .00     .00
0  6      .00     .00     .00     .00     .00     .00     .00     .00     .00     .00
0  7      .00     .00     .00     .00     .00     .00     .00     .00     .00     .00
0  8      .00     .00     .00     .00     .00     .00     .00     .00     .00     .00
0  9      .00     .00     .00     .00     .00     .00     .00     .00     .00     .00
0 10      .00     .00     .00     .00     .00     .00     .00     .00     .00     .00
0 11      .00     .00     .00     .00     .00     .00     .00     .00     .00     .00
0 12      .00     .00     .00     .00     .00     .00     .00     .00     .00     .00
0 13      .00     .00     .00     .00     .00     .00     .00     .00     .00     .00
0 14      .00     .00     .00     .00     .00     .00     .00     .00     .00     .00
0 15      .00     .00     .00     .00     .00     .00     .00     .00     .00     .00
0 16      .00     .00     .00     .00     .00     .00     .00     .00     .00     .00
0 17      .00     .00     .00     .00     .00     .00     .00     .00     .00     .00
0 18      .00     .00     .00     .00     .00     .00     .00     .00     .00     .00
0 19      .00     .00     .00     .00     .00     .00     .00     .00     .00     .00
0 20      .00     .00     .00     .00     .00     .00     .00     .00     .00     .00
0 21      .00     .00     .00     .00     .00     .00     .00     .00     .00     .00
0 22      .00     .00     .00     .00     .00     .00     .00     .00     .00     .00
0 23      .00     .00     .00     .00     .00     .00     .00     .00     .00     .00
0 24      .00     .00     .00     .00     .00     .00     .00     .00     .00     .00
0 25      .00     .00     .00     .00     .00     .00     .00     .00     .00     .00
1                      HEAD IN LAYER 10 AT END OF TIME STEP  9 IN STRESS PERIOD  1
           -----------------------------------------------------------------------

           1       2       3       4       5       6       7       8       9      10      11      12      13      14      15
 ................................................................................................................................
0  1   -98.38  -78.75  -65.09  -54.13  -43.67  -33.58  -24.36  -16.16   -9.51   -5.40   -2.70   -1.05    -.27    -.04    -.00
0  2   -78.75  -72.17  -62.96  -53.39  -43.42  -33.48  -24.32  -16.15   -9.51   -5.40   -2.70   -1.05    -.27    -.04    -.00
0  3   -65.09  -62.96  -58.12  -51.22  -42.56  -33.17  -24.20  -16.11   -9.49   -5.40   -2.69   -1.05    -.27    -.04    -.00
0  4   -54.13  -53.39  -51.22  -47.14  -40.64  -32.39  -23.90  -15.99   -9.45   -5.38   -2.69   -1.05    -.27    -.04    -.00
0  5   -43.67  -43.42  -42.56  -40.64  -36.77  -30.56  -23.14  -15.70   -9.34   -5.34   -2.67   -1.05    -.27    -.04    -.00
0  6   -33.58  -33.48  -33.17  -32.39  -30.56  -26.87  -21.35  -14.95   -9.06   -5.22   -2.63   -1.03    -.26    -.04    -.00
0  7   -24.36  -24.32  -24.20  -23.90  -23.14  -21.35  -18.04  -13.36   -8.41   -4.94   -2.52   -1.00    -.26    -.04    -.00
0  8   -16.16  -16.15  -16.11  -15.99  -15.70  -14.95  -13.36  -10.61   -7.12   -4.35   -2.29    -.93    -.24    -.04    -.00
0  9    -9.51   -9.51   -9.49   -9.45   -9.34   -9.06   -8.41   -7.12   -5.18   -3.36   -1.86    -.79    -.21    -.03    -.00
0 10    -5.40   -5.40   -5.40   -5.38   -5.34   -5.22   -4.94   -4.35   -3.36   -2.31   -1.35    -.60    -.17    -.03    -.00
0 11    -2.70   -2.70   -2.69   -2.69   -2.67   -2.63   -2.52   -2.29   -1.86   -1.35    -.84    -.40    -.12    -.02    -.00
0 12    -1.05   -1.05   -1.05   -1.05   -1.05   -1.03   -1.00    -.93    -.79    -.60    -.40    -.21    -.07    -.01    -.00
0 13     -.27    -.27    -.27    -.27    -.27    -.26    -.26    -.24    -.21    -.17    -.12    -.07    -.03    -.01     .00
0 14     -.04    -.04    -.04    -.04    -.04    -.04    -.04    -.04    -.03    -.03    -.02    -.01    -.01    -.00     .00
0 15     -.00    -.00    -.00    -.00    -.00    -.00    -.00    -.00    -.00    -.00    -.00    -.00     .00     .00     .00
0 16      .00     .00     .00     .00     .00     .00     .00     .00     .00     .00     .00     .00     .00     .00     .00
0 17      .00     .00     .00     .00     .00     .00     .00     .00     .00     .00     .00     .00     .00     .00     .00
0 18      .00     .00     .00     .00     .00     .00     .00     .00     .00     .00     .00     .00     .00     .00     .00
0 19      .00     .00     .00     .00     .00     .00     .00     .00     .00     .00     .00     .00     .00     .00     .00
0 20      .00     .00     .00     .00     .00     .00     .00     .00     .00     .00     .00     .00     .00     .00     .00
0 21      .00     .00     .00     .00     .00     .00     .00     .00     .00     .00     .00     .00     .00     .00     .00
0 22      .00     .00     .00     .00     .00     .00     .00     .00     .00     .00     .00     .00     .00     .00     .00
0 23      .00     .00     .00     .00     .00     .00     .00     .00     .00     .00     .00     .00     .00     .00     .00
0 24      .00     .00     .00     .00     .00     .00     .00     .00     .00     .00     .00     .00     .00     .00     .00
0 25      .00     .00     .00     .00     .00     .00     .00     .00     .00     .00     .00     .00     .00     .00     .00
1                      HEAD IN LAYER 10 AT END OF TIME STEP  9 IN STRESS PERIOD  1
           -----------------------------------------------------------------------

          16      17      18      19      20      21      22      23      24      25
 ........................................................................................
0  1      .00     .00     .00     .00     .00     .00     .00     .00     .00     .00
0  2      .00     .00     .00     .00     .00     .00     .00     .00     .00     .00
0  3      .00     .00     .00     .00     .00     .00     .00     .00     .00     .00
0  4      .00     .00     .00     .00     .00     .00     .00     .00     .00     .00
0  5      .00     .00     .00     .00     .00     .00     .00     .00     .00     .00
0  6      .00     .00     .00     .00     .00     .00     .00     .00     .00     .00
0  7      .00     .00     .00     .00     .00     .00     .00     .00     .00     .00
0  8      .00     .00     .00     .00     .00     .00     .00     .00     .00     .00
0  9      .00     .00     .00     .00     .00     .00     .00     .00     .00     .00
0 10      .00     .00     .00     .00     .00     .00     .00     .00     .00     .00
0 11      .00     .00     .00     .00     .00     .00     .00     .00     .00     .00
0 12      .00     .00     .00     .00     .00     .00     .00     .00     .00     .00
0 13      .00     .00     .00     .00     .00     .00     .00     .00     .00     .00
0 14      .00     .00     .00     .00     .00     .00     .00     .00     .00     .00
0 15      .00     .00     .00     .00     .00     .00     .00     .00     .00     .00
0 16      .00     .00     .00     .00     .00     .00     .00     .00     .00     .00
0 17      .00     .00     .00     .00     .00     .00     .00     .00     .00     .00
0 18      .00     .00     .00     .00     .00     .00     .00     .00     .00     .00
0 19      .00     .00     .00     .00     .00     .00     .00     .00     .00     .00
0 20      .00     .00     .00     .00     .00     .00     .00     .00     .00     .00
0 21      .00     .00     .00     .00     .00     .00     .00     .00     .00     .00
0 22      .00     .00     .00     .00     .00     .00     .00     .00     .00     .00
0 23      .00     .00     .00     .00     .00     .00     .00     .00     .00     .00
0 24      .00     .00     .00     .00     .00     .00     .00     .00     .00     .00
0 25      .00     .00     .00     .00     .00     .00     .00     .00     .00     .00
0


                              VOLUMETRIC BUDGET FOR ENTIRE MODEL AT END OF TIME STEP  9 IN STRESS PERIOD  1
                              -----------------------------------------------------------------------------
0                   CUMULATIVE VOLUMES      L**3                                     RATES FOR THIS TIME STEP      L**3/T
                    ------------------                                               ------------------------

                          IN:                                                                    IN:
                          ---                                                                    ---
                            STORAGE =    819.37                                                    STORAGE =    1.5707    
                      CONSTANT HEAD =    .51304E-08                                          CONSTANT HEAD =    .30342E-10
                              WELLS =    .00000                                                      WELLS =    .00000    
0                          TOTAL IN =    819.37                                                   TOTAL IN =    1.5707    
0                        OUT:                                                                   OUT:
                         ----                                                                   ----
                            STORAGE =    .00000                                                    STORAGE =    .00000    
                      CONSTANT HEAD =    .00000                                              CONSTANT HEAD =    .00000    
                              WELLS =    819.40                                                      WELLS =    1.5707    
0                         TOTAL OUT =    819.40                                                  TOTAL OUT =    1.5707    
0                          IN - OUT =   -.34119E-01                                               IN - OUT =   -.73195E-04
0               PERCENT DISCREPANCY =                -.00                              PERCENT DISCREPANCY =                -.00



0


          TIME SUMMARY AT END OF TIME STEP  9 IN STRESS PERIOD  1
                               SECONDS        MINUTES         HOURS          DAYS           YEARS
                           ---------------------------------------------------------------------------
      TIME STEP LENGTH         159.808        2.66346        .443910E-01    .184963E-02    .506400E-05
    STRESS PERIOD TIME         521.662        8.69436        .144906        .603775E-02    .165305E-04
 TOTAL SIMULATION TIME         521.662        8.69436        .144906        .603775E-02    .165305E-04
1
    16 ITERATIONS FOR TIME STEP  10 IN STRESS PERIOD  1
0MAXIMUM HEAD CHANGE FOR EACH ITERATION:
0 HEAD CHANGE LAYER,ROW,COL HEAD CHANGE LAYER,ROW,COL HEAD CHANGE LAYER,ROW,COL HEAD CHANGE LAYER,ROW,COL HEAD CHANGE LAYER,ROW,COL
 ------------------------------------------------------------------------------------------------------------------------------------
   -5.362     (  8,  1,  1)  -.8023     (  7,  2,  2)  -2.037     (  9,  1,  1)  -.3271     ( 10,  1,  1)  -.2965     ( 10,  6,  1)
    .3668E-01 ( 10,  9,  1)  -.5205E-01 ( 10,  1,  1)  -.4044E-01 ( 10,  1,  1)  -.1031     ( 10,  4,  1)   .2506E-01 ( 10,  6,  2)
   -.2750E-02 (  8,  5,  4)  -.3103E-02 ( 10,  2,  2)  -.1170E-01 ( 10,  1,  1)   .1925E-02 ( 10,  5,  5)   .1371E-02 ( 10,  1,  1)
   -.1480E-03 ( 10,  7,  2)
0
0HEAD/DRAWDOWN PRINTOUT FLAG = 1     TOTAL BUDGET PRINTOUT FLAG = 1     CELL-BY-CELL FLOW TERM FLAG = 0
 REUSING PREVIOUS VALUES OF IOFLG
1                      HEAD IN LAYER  9 AT END OF TIME STEP 10 IN STRESS PERIOD  1
           -----------------------------------------------------------------------

           1       2       3       4       5       6       7       8       9      10      11      12      13      14      15
 ................................................................................................................................
0  1   -96.94  -77.39  -63.88  -53.14  -43.02  -33.40  -24.68  -16.93  -10.50   -6.37   -3.48   -1.55    -.48    -.09    -.01
0  2   -77.39  -70.86  -61.78  -52.42  -42.78  -33.31  -24.65  -16.91  -10.50   -6.36   -3.48   -1.55    -.48    -.09    -.01
0  3   -63.88  -61.78  -57.03  -50.31  -41.95  -33.01  -24.54  -16.87  -10.48   -6.36   -3.48   -1.55    -.48    -.09    -.01
0  4   -53.14  -52.42  -50.31  -46.36  -40.11  -32.27  -24.25  -16.76  -10.44   -6.34   -3.47   -1.55    -.48    -.09    -.01
0  5   -43.02  -42.78  -41.95  -40.11  -36.43  -30.54  -23.53  -16.48  -10.33   -6.29   -3.45   -1.54    -.48    -.09    -.01
0  6   -33.40  -33.31  -33.01  -32.27  -30.54  -27.06  -21.85  -15.77  -10.06   -6.17   -3.40   -1.53    -.47    -.09    -.01
0  7   -24.68  -24.65  -24.54  -24.25  -23.53  -21.85  -18.71  -14.23   -9.41   -5.89   -3.28   -1.49    -.46    -.09    -.01
0  8   -16.93  -16.91  -16.87  -16.76  -16.48  -15.77  -14.23  -11.58   -8.13   -5.28   -3.02   -1.39    -.44    -.08    -.01
0  9   -10.50  -10.50  -10.48  -10.44  -10.33  -10.06   -9.41   -8.13   -6.15   -4.22   -2.54   -1.21    -.39    -.08    -.01
0 10    -6.37   -6.36   -6.36   -6.34   -6.29   -6.17   -5.89   -5.28   -4.22   -3.06   -1.93    -.97    -.33    -.07    -.01
0 11    -3.48   -3.48   -3.48   -3.47   -3.45   -3.40   -3.28   -3.02   -2.54   -1.93   -1.30    -.69    -.25    -.05    -.01
0 12    -1.55   -1.55   -1.55   -1.55   -1.54   -1.53   -1.49   -1.39   -1.21    -.97    -.69    -.40    -.15    -.03    -.00
0 13     -.48    -.48    -.48    -.48    -.48    -.47    -.46    -.44    -.39    -.33    -.25    -.15    -.07    -.02    -.00
0 14     -.09    -.09    -.09    -.09    -.09    -.09    -.09    -.08    -.08    -.07    -.05    -.03    -.02    -.00     .00
0 15     -.01    -.01    -.01    -.01    -.01    -.01    -.01    -.01    -.01    -.01    -.01    -.00    -.00     .00     .00
0 16      .00     .00     .00     .00     .00     .00     .00     .00     .00     .00     .00     .00     .00     .00     .00
0 17      .00     .00     .00     .00     .00     .00     .00     .00     .00     .00     .00     .00     .00     .00     .00
0 18      .00     .00     .00     .00     .00     .00     .00     .00     .00     .00     .00     .00     .00     .00     .00
0 19      .00     .00     .00     .00     .00     .00     .00     .00     .00     .00     .00     .00     .00     .00     .00
0 20      .00     .00     .00     .00     .00     .00     .00     .00     .00     .00     .00     .00     .00     .00     .00
0 21      .00     .00     .00     .00     .00     .00     .00     .00     .00     .00     .00     .00     .00     .00     .00
0 22      .00     .00     .00     .00     .00     .00     .00     .00     .00     .00     .00     .00     .00     .00     .00
0 23      .00     .00     .00     .00     .00     .00     .00     .00     .00     .00     .00     .00     .00     .00     .00
0 24      .00     .00     .00     .00     .00     .00     .00     .00     .00     .00     .00     .00     .00     .00     .00
0 25      .00     .00     .00     .00     .00     .00     .00     .00     .00     .00     .00     .00     .00     .00     .00
1                      HEAD IN LAYER  9 AT END OF TIME STEP 10 IN STRESS PERIOD  1
           -----------------------------------------------------------------------

          16      17      18      19      20      21      22      23      24      25
 ........................................................................................
0  1      .00     .00     .00     .00     .00     .00     .00     .00     .00     .00
0  2      .00     .00     .00     .00     .00     .00     .00     .00     .00     .00
0  3      .00     .00     .00     .00     .00     .00     .00     .00     .00     .00
0  4      .00     .00     .00     .00     .00     .00     .00     .00     .00     .00
0  5      .00     .00     .00     .00     .00     .00     .00     .00     .00     .00
0  6      .00     .00     .00     .00     .00     .00     .00     .00     .00     .00
0  7      .00     .00     .00     .00     .00     .00     .00     .00     .00     .00
0  8      .00     .00     .00     .00     .00     .00     .00     .00     .00     .00
0  9      .00     .00     .00     .00     .00     .00     .00     .00     .00     .00
0 10      .00     .00     .00     .00     .00     .00     .00     .00     .00     .00
0 11      .00     .00     .00     .00     .00     .00     .00     .00     .00     .00
0 12      .00     .00     .00     .00     .00     .00     .00     .00     .00     .00
0 13      .00     .00     .00     .00     .00     .00     .00     .00     .00     .00
0 14      .00     .00     .00     .00     .00     .00     .00     .00     .00     .00
0 15      .00     .00     .00     .00     .00     .00     .00     .00     .00     .00
0 16      .00     .00     .00     .00     .00     .00     .00     .00     .00     .00
0 17      .00     .00     .00     .00     .00     .00     .00     .00     .00     .00
0 18      .00     .00     .00     .00     .00     .00     .00     .00     .00     .00
0 19      .00     .00     .00     .00     .00     .00     .00     .00     .00     .00
0 20      .00     .00     .00     .00     .00     .00     .00     .00     .00     .00
0 21      .00     .00     .00     .00     .00     .00     .00     .00     .00     .00
0 22      .00     .00     .00     .00     .00     .00     .00     .00     .00     .00
0 23      .00     .00     .00     .00     .00     .00     .00     .00     .00     .00
0 24      .00     .00     .00     .00     .00     .00     .00     .00     .00     .00
0 25      .00     .00     .00     .00     .00     .00     .00     .00     .00     .00
1                      HEAD IN LAYER 10 AT END OF TIME STEP 10 IN STRESS PERIOD  1
           -----------------------------------------------------------------------

           1       2       3       4       5       6       7       8       9      10      11      12      13      14      15
 ................................................................................................................................
0  1  -101.11  -81.48  -67.82  -56.85  -46.39  -36.25  -26.94  -18.57  -11.59   -7.06   -3.88   -1.74    -.54    -.10    -.01
0  2   -81.48  -74.90  -65.70  -56.12  -46.13  -36.16  -26.91  -18.56  -11.58   -7.06   -3.88   -1.74    -.54    -.10    -.01
0  3   -67.82  -65.70  -60.85  -53.94  -45.27  -35.84  -26.78  -18.51  -11.57   -7.05   -3.88   -1.74    -.54    -.10    -.01
0  4   -56.85  -56.12  -53.94  -49.86  -43.34  -35.05  -26.48  -18.39  -11.52   -7.04   -3.87   -1.74    -.54    -.10    -.01
0  5   -46.39  -46.13  -45.27  -43.34  -39.46  -33.22  -25.71  -18.09  -11.41   -6.99   -3.85   -1.73    -.54    -.10    -.01
0  6   -36.25  -36.16  -35.84  -35.05  -33.22  -29.49  -23.89  -17.32  -11.10   -6.85   -3.80   -1.71    -.53    -.10    -.01
0  7   -26.94  -26.91  -26.78  -26.48  -25.71  -23.89  -20.50  -15.65  -10.40   -6.54   -3.67   -1.67    -.52    -.10    -.01
0  8   -18.57  -18.56  -18.51  -18.39  -18.09  -17.32  -15.65  -12.76   -9.00   -5.87   -3.38   -1.57    -.50    -.09    -.01
0  9   -11.59  -11.58  -11.57  -11.52  -11.41  -11.10  -10.40   -9.00   -6.83   -4.70   -2.84   -1.36    -.45    -.09    -.01
0 10    -7.06   -7.06   -7.05   -7.04   -6.99   -6.85   -6.54   -5.87   -4.70   -3.42   -2.17   -1.09    -.37    -.07    -.01
0 11    -3.88   -3.88   -3.88   -3.87   -3.85   -3.80   -3.67   -3.38   -2.84   -2.17   -1.46    -.78    -.28    -.06    -.01
0 12    -1.74   -1.74   -1.74   -1.74   -1.73   -1.71   -1.67   -1.57   -1.36   -1.09    -.78    -.45    -.18    -.04    -.00
0 13     -.54    -.54    -.54    -.54    -.54    -.53    -.52    -.50    -.45    -.37    -.28    -.18    -.08    -.02    -.00
0 14     -.10    -.10    -.10    -.10    -.10    -.10    -.10    -.09    -.09    -.07    -.06    -.04    -.02    -.01     .00
0 15     -.01    -.01    -.01    -.01    -.01    -.01    -.01    -.01    -.01    -.01    -.01    -.00    -.00     .00     .00
0 16      .00     .00     .00     .00     .00     .00     .00     .00     .00     .00     .00     .00     .00     .00     .00
0 17      .00     .00     .00     .00     .00     .00     .00     .00     .00     .00     .00     .00     .00     .00     .00
0 18      .00     .00     .00     .00     .00     .00     .00     .00     .00     .00     .00     .00     .00     .00     .00
0 19      .00     .00     .00     .00     .00     .00     .00     .00     .00     .00     .00     .00     .00     .00     .00
0 20      .00     .00     .00     .00     .00     .00     .00     .00     .00     .00     .00     .00     .00     .00     .00
0 21      .00     .00     .00     .00     .00     .00     .00     .00     .00     .00     .00     .00     .00     .00     .00
0 22      .00     .00     .00     .00     .00     .00     .00     .00     .00     .00     .00     .00     .00     .00     .00
0 23      .00     .00     .00     .00     .00     .00     .00     .00     .00     .00     .00     .00     .00     .00     .00
0 24      .00     .00     .00     .00     .00     .00     .00     .00     .00     .00     .00     .00     .00     .00     .00
0 25      .00     .00     .00     .00     .00     .00     .00     .00     .00     .00     .00     .00     .00     .00     .00
1                      HEAD IN LAYER 10 AT END OF TIME STEP 10 IN STRESS PERIOD  1
           -----------------------------------------------------------------------

          16      17      18      19      20      21      22      23      24      25
 ........................................................................................
0  1      .00     .00     .00     .00     .00     .00     .00     .00     .00     .00
0  2      .00     .00     .00     .00     .00     .00     .00     .00     .00     .00
0  3      .00     .00     .00     .00     .00     .00     .00     .00     .00     .00
0  4      .00     .00     .00     .00     .00     .00     .00     .00     .00     .00
0  5      .00     .00     .00     .00     .00     .00     .00     .00     .00     .00
0  6      .00     .00     .00     .00     .00     .00     .00     .00     .00     .00
0  7      .00     .00     .00     .00     .00     .00     .00     .00     .00     .00
0  8      .00     .00     .00     .00     .00     .00     .00     .00     .00     .00
0  9      .00     .00     .00     .00     .00     .00     .00     .00     .00     .00
0 10      .00     .00     .00     .00     .00     .00     .00     .00     .00     .00
0 11      .00     .00     .00     .00     .00     .00     .00     .00     .00     .00
0 12      .00     .00     .00     .00     .00     .00     .00     .00     .00     .00
0 13      .00     .00     .00     .00     .00     .00     .00     .00     .00     .00
0 14      .00     .00     .00     .00     .00     .00     .00     .00     .00     .00
0 15      .00     .00     .00     .00     .00     .00     .00     .00     .00     .00
0 16      .00     .00     .00     .00     .00     .00     .00     .00     .00     .00
0 17      .00     .00     .00     .00     .00     .00     .00     .00     .00     .00
0 18      .00     .00     .00     .00     .00     .00     .00     .00     .00     .00
0 19      .00     .00     .00     .00     .00     .00     .00     .00     .00     .00
0 20      .00     .00     .00     .00     .00     .00     .00     .00     .00     .00
0 21      .00     .00     .00     .00     .00     .00     .00     .00     .00     .00
0 22      .00     .00     .00     .00     .00     .00     .00     .00     .00     .00
0 23      .00     .00     .00     .00     .00     .00     .00     .00     .00     .00
0 24      .00     .00     .00     .00     .00     .00     .00     .00     .00     .00
0 25      .00     .00     .00     .00     .00     .00     .00     .00     .00     .00
0


                              VOLUMETRIC BUDGET FOR ENTIRE MODEL AT END OF TIME STEP 10 IN STRESS PERIOD  1
                              -----------------------------------------------------------------------------
0                   CUMULATIVE VOLUMES      L**3                                     RATES FOR THIS TIME STEP      L**3/T
                    ------------------                                               ------------------------

                          IN:                                                                    IN:
                          ---                                                                    ---
                            STORAGE =    1174.3                                                    STORAGE =    1.5707    
                      CONSTANT HEAD =    .85267E-07                                          CONSTANT HEAD =    .35464E-09
                              WELLS =    .00000                                                      WELLS =    .00000    
0                          TOTAL IN =    1174.3                                                   TOTAL IN =    1.5707    
0                        OUT:                                                                   OUT:
                         ----                                                                   ----
                            STORAGE =    .00000                                                    STORAGE =    .00000    
                      CONSTANT HEAD =    .00000                                              CONSTANT HEAD =    .00000    
                              WELLS =    1174.3                                                      WELLS =    1.5707    
0                         TOTAL OUT =    1174.3                                                  TOTAL OUT =    1.5707    
0                          IN - OUT =   -.52856E-01                                               IN - OUT =   -.83089E-04
0               PERCENT DISCREPANCY =                -.00                              PERCENT DISCREPANCY =                -.01



0


          TIME SUMMARY AT END OF TIME STEP 10 IN STRESS PERIOD  1
                               SECONDS        MINUTES         HOURS          DAYS           YEARS
                           ---------------------------------------------------------------------------
      TIME STEP LENGTH         225.968        3.76613        .627689E-01    .261537E-02    .716050E-05
    STRESS PERIOD TIME         747.630        12.4605        .207675        .865312E-02    .236910E-04
 TOTAL SIMULATION TIME         747.630        12.4605        .207675        .865312E-02    .236910E-04
1
    16 ITERATIONS FOR TIME STEP  11 IN STRESS PERIOD  1
0MAXIMUM HEAD CHANGE FOR EACH ITERATION:
0 HEAD CHANGE LAYER,ROW,COL HEAD CHANGE LAYER,ROW,COL HEAD CHANGE LAYER,ROW,COL HEAD CHANGE LAYER,ROW,COL HEAD CHANGE LAYER,ROW,COL
 ------------------------------------------------------------------------------------------------------------------------------------
   -4.392     (  7,  1,  1)  -1.190     (  7,  2,  2)  -1.860     (  9,  1,  1)  -.3938     ( 10,  1,  1)  -.3604     ( 10,  6,  1)
    .3883E-01 ( 10,  9,  1)  -.4846E-01 ( 10,  1,  1)  -.3486E-01 ( 10,  1,  1)  -.1074     ( 10,  4,  1)   .2736E-01 ( 10,  6,  3)
   -.3165E-02 (  8,  5,  5)  -.3038E-02 ( 10,  2,  2)  -.1196E-01 ( 10,  1,  1)   .2131E-02 ( 10,  5,  5)   .1570E-02 ( 10,  1,  1)
   -.1581E-03 ( 10,  7,  2)
0
0HEAD/DRAWDOWN PRINTOUT FLAG = 1     TOTAL BUDGET PRINTOUT FLAG = 1     CELL-BY-CELL FLOW TERM FLAG = 0
 REUSING PREVIOUS VALUES OF IOFLG
1                      HEAD IN LAYER  9 AT END OF TIME STEP 11 IN STRESS PERIOD  1
           -----------------------------------------------------------------------

           1       2       3       4       5       6       7       8       9      10      11      12      13      14      15
 ................................................................................................................................
0  1  -100.05  -80.50  -66.98  -56.20  -46.03  -36.29  -27.40  -19.40  -12.63   -8.10   -4.78   -2.38    -.87    -.20    -.02
0  2   -80.50  -73.97  -64.88  -55.49  -45.78  -36.20  -27.37  -19.39  -12.62   -8.10   -4.78   -2.38    -.87    -.20    -.02
0  3   -66.98  -64.88  -60.11  -53.36  -44.95  -35.89  -27.25  -19.34  -12.60   -8.09   -4.78   -2.38    -.87    -.20    -.02
0  4   -56.20  -55.49  -53.36  -49.38  -43.09  -35.14  -26.96  -19.23  -12.56   -8.07   -4.77   -2.38    -.87    -.20    -.02
0  5   -46.03  -45.78  -44.95  -43.09  -39.36  -33.39  -26.22  -18.94  -12.45   -8.02   -4.75   -2.37    -.86    -.20    -.02
0  6   -36.29  -36.20  -35.89  -35.14  -33.39  -29.83  -24.49  -18.19  -12.15   -7.89   -4.69   -2.35    -.86    -.20    -.02
0  7   -27.40  -27.37  -27.25  -26.96  -26.22  -24.49  -21.25  -16.59  -11.45   -7.57   -4.55   -2.30    -.84    -.19    -.02
0  8   -19.40  -19.39  -19.34  -19.23  -18.94  -18.19  -16.59  -13.78  -10.07   -6.88   -4.24   -2.17    -.81    -.19    -.02
0  9   -12.63  -12.62  -12.60  -12.56  -12.45  -12.15  -11.45  -10.07   -7.87   -5.67   -3.64   -1.93    -.74    -.18    -.02
0 10    -8.10   -8.10   -8.09   -8.07   -8.02   -7.89   -7.57   -6.88   -5.67   -4.28   -2.89   -1.60    -.63    -.16    -.02
0 11    -4.79   -4.78   -4.78   -4.77   -4.75   -4.69   -4.55   -4.24   -3.64   -2.89   -2.05   -1.20    -.50    -.13    -.02
0 12    -2.38   -2.38   -2.38   -2.38   -2.37   -2.35   -2.30   -2.17   -1.93   -1.60   -1.20    -.75    -.34    -.09    -.01
0 13     -.87    -.87    -.87    -.87    -.86    -.86    -.84    -.81    -.74    -.63    -.50    -.34    -.17    -.05    -.01
0 14     -.20    -.20    -.20    -.20    -.20    -.20    -.19    -.19    -.18    -.16    -.13    -.09    -.05    -.02    -.00
0 15     -.02    -.02    -.02    -.02    -.02    -.02    -.02    -.02    -.02    -.02    -.02    -.01    -.01    -.00     .00
0 16     -.00    -.00    -.00    -.00    -.00    -.00    -.00    -.00    -.00    -.00    -.00     .00     .00     .00     .00
0 17      .00     .00     .00     .00     .00     .00     .00     .00     .00     .00     .00     .00     .00     .00     .00
0 18      .00     .00     .00     .00     .00     .00     .00     .00     .00     .00     .00     .00     .00     .00     .00
0 19      .00     .00     .00     .00     .00     .00     .00     .00     .00     .00     .00     .00     .00     .00     .00
0 20      .00     .00     .00     .00     .00     .00     .00     .00     .00     .00     .00     .00     .00     .00     .00
0 21      .00     .00     .00     .00     .00     .00     .00     .00     .00     .00     .00     .00     .00     .00     .00
0 22      .00     .00     .00     .00     .00     .00     .00     .00     .00     .00     .00     .00     .00     .00     .00
0 23      .00     .00     .00     .00     .00     .00     .00     .00     .00     .00     .00     .00     .00     .00     .00
0 24      .00     .00     .00     .00     .00     .00     .00     .00     .00     .00     .00     .00     .00     .00     .00
0 25      .00     .00     .00     .00     .00     .00     .00     .00     .00     .00     .00     .00     .00     .00     .00
1                      HEAD IN LAYER  9 AT END OF TIME STEP 11 IN STRESS PERIOD  1
           -----------------------------------------------------------------------

          16      17      18      19      20      21      22      23      24      25
 ........................................................................................
0  1     -.00     .00     .00     .00     .00     .00     .00     .00     .00     .00
0  2     -.00     .00     .00     .00     .00     .00     .00     .00     .00     .00
0  3     -.00     .00     .00     .00     .00     .00     .00     .00     .00     .00
0  4     -.00     .00     .00     .00     .00     .00     .00     .00     .00     .00
0  5     -.00     .00     .00     .00     .00     .00     .00     .00     .00     .00
0  6     -.00     .00     .00     .00     .00     .00     .00     .00     .00     .00
0  7     -.00     .00     .00     .00     .00     .00     .00     .00     .00     .00
0  8     -.00     .00     .00     .00     .00     .00     .00     .00     .00     .00
0  9     -.00     .00     .00     .00     .00     .00     .00     .00     .00     .00
0 10     -.00     .00     .00     .00     .00     .00     .00     .00     .00     .00
0 11     -.00     .00     .00     .00     .00     .00     .00     .00     .00     .00
0 12      .00     .00     .00     .00     .00     .00     .00     .00     .00     .00
0 13      .00     .00     .00     .00     .00     .00     .00     .00     .00     .00
0 14      .00     .00     .00     .00     .00     .00     .00     .00     .00     .00
0 15      .00     .00     .00     .00     .00     .00     .00     .00     .00     .00
0 16      .00     .00     .00     .00     .00     .00     .00     .00     .00     .00
0 17      .00     .00     .00     .00     .00     .00     .00     .00     .00     .00
0 18      .00     .00     .00     .00     .00     .00     .00     .00     .00     .00
0 19      .00     .00     .00     .00     .00     .00     .00     .00     .00     .00
0 20      .00     .00     .00     .00     .00     .00     .00     .00     .00     .00
0 21      .00     .00     .00     .00     .00     .00     .00     .00     .00     .00
0 22      .00     .00     .00     .00     .00     .00     .00     .00     .00     .00
0 23      .00     .00     .00     .00     .00     .00     .00     .00     .00     .00
0 24      .00     .00     .00     .00     .00     .00     .00     .00     .00     .00
0 25      .00     .00     .00     .00     .00     .00     .00     .00     .00     .00
1                      HEAD IN LAYER 10 AT END OF TIME STEP 11 IN STRESS PERIOD  1
           -----------------------------------------------------------------------

           1       2       3       4       5       6       7       8       9      10      11      12      13      14      15
 ................................................................................................................................
0  1  -103.74  -84.11  -70.45  -59.47  -49.00  -38.83  -29.45  -20.94  -13.70   -8.83   -5.24   -2.63    -.96    -.22    -.03
0  2   -84.11  -77.53  -68.32  -58.74  -48.74  -38.74  -29.42  -20.93  -13.69   -8.83   -5.24   -2.63    -.96    -.22    -.03
0  3   -70.45  -68.32  -63.47  -56.56  -47.88  -38.41  -29.29  -20.88  -13.67   -8.82   -5.24   -2.62    -.96    -.22    -.03
0  4   -59.47  -58.74  -56.56  -52.47  -45.95  -37.63  -28.98  -20.76  -13.63   -8.80   -5.23   -2.62    -.96    -.22    -.03
0  5   -49.00  -48.74  -47.88  -45.95  -42.05  -35.78  -28.20  -20.45  -13.51   -8.75   -5.21   -2.61    -.96    -.22    -.03
0  6   -38.83  -38.74  -38.41  -37.63  -35.78  -32.03  -26.36  -19.65  -13.19   -8.60   -5.14   -2.59    -.95    -.22    -.03
0  7   -29.45  -29.42  -29.29  -28.98  -28.20  -26.36  -22.91  -17.94  -12.44   -8.25   -4.99   -2.53    -.93    -.22    -.03
0  8   -20.94  -20.93  -20.88  -20.76  -20.45  -19.65  -17.94  -14.93  -10.95   -7.51   -4.65   -2.40    -.90    -.21    -.03
0  9   -13.70  -13.69  -13.67  -13.63  -13.51  -13.19  -12.44  -10.95   -8.59   -6.20   -4.00   -2.14    -.82    -.20    -.02
0 10    -8.83   -8.83   -8.82   -8.80   -8.75   -8.60   -8.25   -7.51   -6.20   -4.70   -3.18   -1.77    -.71    -.17    -.02
0 11    -5.24   -5.24   -5.24   -5.23   -5.21   -5.14   -4.99   -4.65   -4.00   -3.18   -2.26   -1.33    -.56    -.14    -.02
0 12    -2.63   -2.63   -2.62   -2.62   -2.61   -2.59   -2.53   -2.40   -2.14   -1.77   -1.33    -.83    -.38    -.10    -.01
0 13     -.96    -.96    -.96    -.96    -.96    -.95    -.93    -.90    -.82    -.71    -.56    -.38    -.19    -.06    -.01
0 14     -.22    -.22    -.22    -.22    -.22    -.22    -.22    -.21    -.20    -.17    -.14    -.10    -.06    -.02    -.00
0 15     -.03    -.03    -.03    -.03    -.03    -.03    -.03    -.03    -.02    -.02    -.02    -.01    -.01    -.00     .00
0 16     -.00    -.00    -.00    -.00    -.00    -.00    -.00    -.00    -.00    -.00    -.00    -.00     .00     .00     .00
0 17      .00     .00     .00     .00     .00     .00     .00     .00     .00     .00     .00     .00     .00     .00     .00
0 18      .00     .00     .00     .00     .00     .00     .00     .00     .00     .00     .00     .00     .00     .00     .00
0 19      .00     .00     .00     .00     .00     .00     .00     .00     .00     .00     .00     .00     .00     .00     .00
0 20      .00     .00     .00     .00     .00     .00     .00     .00     .00     .00     .00     .00     .00     .00     .00
0 21      .00     .00     .00     .00     .00     .00     .00     .00     .00     .00     .00     .00     .00     .00     .00
0 22      .00     .00     .00     .00     .00     .00     .00     .00     .00     .00     .00     .00     .00     .00     .00
0 23      .00     .00     .00     .00     .00     .00     .00     .00     .00     .00     .00     .00     .00     .00     .00
0 24      .00     .00     .00     .00     .00     .00     .00     .00     .00     .00     .00     .00     .00     .00     .00
0 25      .00     .00     .00     .00     .00     .00     .00     .00     .00     .00     .00     .00     .00     .00     .00
1                      HEAD IN LAYER 10 AT END OF TIME STEP 11 IN STRESS PERIOD  1
           -----------------------------------------------------------------------

          16      17      18      19      20      21      22      23      24      25
 ........................................................................................
0  1     -.00     .00     .00     .00     .00     .00     .00     .00     .00     .00
0  2     -.00     .00     .00     .00     .00     .00     .00     .00     .00     .00
0  3     -.00     .00     .00     .00     .00     .00     .00     .00     .00     .00
0  4     -.00     .00     .00     .00     .00     .00     .00     .00     .00     .00
0  5     -.00     .00     .00     .00     .00     .00     .00     .00     .00     .00
0  6     -.00     .00     .00     .00     .00     .00     .00     .00     .00     .00
0  7     -.00     .00     .00     .00     .00     .00     .00     .00     .00     .00
0  8     -.00     .00     .00     .00     .00     .00     .00     .00     .00     .00
0  9     -.00     .00     .00     .00     .00     .00     .00     .00     .00     .00
0 10     -.00     .00     .00     .00     .00     .00     .00     .00     .00     .00
0 11     -.00     .00     .00     .00     .00     .00     .00     .00     .00     .00
0 12     -.00     .00     .00     .00     .00     .00     .00     .00     .00     .00
0 13      .00     .00     .00     .00     .00     .00     .00     .00     .00     .00
0 14      .00     .00     .00     .00     .00     .00     .00     .00     .00     .00
0 15      .00     .00     .00     .00     .00     .00     .00     .00     .00     .00
0 16      .00     .00     .00     .00     .00     .00     .00     .00     .00     .00
0 17      .00     .00     .00     .00     .00     .00     .00     .00     .00     .00
0 18      .00     .00     .00     .00     .00     .00     .00     .00     .00     .00
0 19      .00     .00     .00     .00     .00     .00     .00     .00     .00     .00
0 20      .00     .00     .00     .00     .00     .00     .00     .00     .00     .00
0 21      .00     .00     .00     .00     .00     .00     .00     .00     .00     .00
0 22      .00     .00     .00     .00     .00     .00     .00     .00     .00     .00
0 23      .00     .00     .00     .00     .00     .00     .00     .00     .00     .00
0 24      .00     .00     .00     .00     .00     .00     .00     .00     .00     .00
0 25      .00     .00     .00     .00     .00     .00     .00     .00     .00     .00
0


                              VOLUMETRIC BUDGET FOR ENTIRE MODEL AT END OF TIME STEP 11 IN STRESS PERIOD  1
                              -----------------------------------------------------------------------------
0                   CUMULATIVE VOLUMES      L**3                                     RATES FOR THIS TIME STEP      L**3/T
                    ------------------                                               ------------------------

                          IN:                                                                    IN:
                          ---                                                                    ---
                            STORAGE =    1676.1                                                    STORAGE =    1.5707    
                      CONSTANT HEAD =    .12837E-05                                          CONSTANT HEAD =    .37508E-08
                              WELLS =    .00000                                                      WELLS =    .00000    
0                          TOTAL IN =    1676.1                                                   TOTAL IN =    1.5707    
0                        OUT:                                                                   OUT:
                         ----                                                                   ----
                            STORAGE =    .00000                                                    STORAGE =    .00000    
                      CONSTANT HEAD =    .00000                                              CONSTANT HEAD =    .00000    
                              WELLS =    1676.2                                                      WELLS =    1.5707    
0                         TOTAL OUT =    1676.2                                                  TOTAL OUT =    1.5707    
0                          IN - OUT =   -.81299E-01                                               IN - OUT =   -.88930E-04
0               PERCENT DISCREPANCY =                -.00                              PERCENT DISCREPANCY =                -.01



0


          TIME SUMMARY AT END OF TIME STEP 11 IN STRESS PERIOD  1
                               SECONDS        MINUTES         HOURS          DAYS           YEARS
                           ---------------------------------------------------------------------------
      TIME STEP LENGTH         319.519        5.32531        .887552E-01    .369813E-02    .101249E-04
    STRESS PERIOD TIME         1067.15        17.7858        .296430        .123513E-01    .338159E-04
 TOTAL SIMULATION TIME         1067.15        17.7858        .296430        .123513E-01    .338159E-04
1
    16 ITERATIONS FOR TIME STEP  12 IN STRESS PERIOD  1
0MAXIMUM HEAD CHANGE FOR EACH ITERATION:
0 HEAD CHANGE LAYER,ROW,COL HEAD CHANGE LAYER,ROW,COL HEAD CHANGE LAYER,ROW,COL HEAD CHANGE LAYER,ROW,COL HEAD CHANGE LAYER,ROW,COL
 ------------------------------------------------------------------------------------------------------------------------------------
   -4.527     (  7,  1,  1)  -1.604     (  7,  2,  2)  -1.675     (  9,  1,  1)  -.4518     ( 10,  1,  1)  -.4287     ( 10,  6,  1)
    .3934E-01 ( 10,  9,  1)   .5178E-01 (  9, 10,  1)  -.2727E-01 ( 10,  1,  1)  -.1041     ( 10,  4,  1)   .2798E-01 ( 10,  6,  3)
   -.3284E-02 (  8,  5,  5)  -.2910E-02 ( 10,  2,  2)  -.1197E-01 ( 10,  1,  1)   .2278E-02 ( 10,  6,  5)   .1698E-02 ( 10,  1,  1)
    .1842E-03 ( 10, 11,  1)
0
0HEAD/DRAWDOWN PRINTOUT FLAG = 1     TOTAL BUDGET PRINTOUT FLAG = 1     CELL-BY-CELL FLOW TERM FLAG = 0
 REUSING PREVIOUS VALUES OF IOFLG
1                      HEAD IN LAYER  9 AT END OF TIME STEP 12 IN STRESS PERIOD  1
           -----------------------------------------------------------------------

           1       2       3       4       5       6       7       8       9      10      11      12      13      14      15
 ................................................................................................................................
0  1  -103.01  -83.45  -69.92  -59.12  -48.90  -39.07  -30.05  -21.85  -14.80   -9.94   -6.25   -3.40   -1.42    -.39    -.06
0  2   -83.45  -76.92  -67.82  -58.40  -48.65  -38.98  -30.02  -21.84  -14.79   -9.94   -6.25   -3.40   -1.42    -.39    -.06
0  3   -69.92  -67.82  -63.05  -56.27  -47.81  -38.67  -29.90  -21.79  -14.77   -9.93   -6.24   -3.40   -1.42    -.39    -.06
0  4   -59.12  -58.40  -56.27  -52.28  -45.94  -37.91  -29.60  -21.68  -14.73   -9.91   -6.23   -3.40   -1.42    -.39    -.06
0  5   -48.90  -48.65  -47.81  -45.94  -42.18  -36.13  -28.85  -21.37  -14.61   -9.85   -6.21   -3.39   -1.41    -.39    -.06
0  6   -39.07  -38.98  -38.67  -37.91  -36.13  -32.53  -27.08  -20.60  -14.29   -9.71   -6.14   -3.36   -1.41    -.39    -.06
0  7   -30.05  -30.02  -29.90  -29.60  -28.85  -27.08  -23.76  -18.94  -13.55   -9.36   -5.98   -3.29   -1.39    -.39    -.06
0  8   -21.85  -21.84  -21.79  -21.68  -21.37  -20.60  -18.94  -16.01  -12.07   -8.60   -5.62   -3.14   -1.34    -.38    -.06
0  9   -14.80  -14.79  -14.77  -14.73  -14.61  -14.29  -13.55  -12.07   -9.71   -7.25   -4.93   -2.84   -1.24    -.36    -.06
0 10    -9.94   -9.94   -9.93   -9.91   -9.86   -9.71   -9.36   -8.60   -7.25   -5.67   -4.02   -2.41   -1.09    -.32    -.05
0 11    -6.25   -6.25   -6.24   -6.23   -6.21   -6.14   -5.98   -5.62   -4.93   -4.02   -3.00   -1.89    -.89    -.27    -.05
0 12    -3.40   -3.40   -3.40   -3.40   -3.39   -3.36   -3.29   -3.14   -2.84   -2.41   -1.89   -1.26    -.64    -.21    -.04
0 13    -1.42   -1.42   -1.42   -1.42   -1.41   -1.41   -1.39   -1.34   -1.24   -1.09    -.89    -.64    -.35    -.13    -.02
0 14     -.39    -.39    -.39    -.39    -.39    -.39    -.39    -.38    -.36    -.32    -.27    -.21    -.13    -.05    -.01
0 15     -.06    -.06    -.06    -.06    -.06    -.06    -.06    -.06    -.06    -.05    -.05    -.04    -.02    -.01    -.00
0 16     -.01    -.01    -.01    -.01    -.01    -.01    -.01    -.01    -.01    -.00    -.00    -.00    -.00    -.00     .00
0 17      .00     .00     .00     .00     .00     .00     .00     .00     .00     .00     .00     .00     .00     .00     .00
0 18      .00     .00     .00     .00     .00     .00     .00     .00     .00     .00     .00     .00     .00     .00     .00
0 19      .00     .00     .00     .00     .00     .00     .00     .00     .00     .00     .00     .00     .00     .00     .00
0 20      .00     .00     .00     .00     .00     .00     .00     .00     .00     .00     .00     .00     .00     .00     .00
0 21      .00     .00     .00     .00     .00     .00     .00     .00     .00     .00     .00     .00     .00     .00     .00
0 22      .00     .00     .00     .00     .00     .00     .00     .00     .00     .00     .00     .00     .00     .00     .00
0 23      .00     .00     .00     .00     .00     .00     .00     .00     .00     .00     .00     .00     .00     .00     .00
0 24      .00     .00     .00     .00     .00     .00     .00     .00     .00     .00     .00     .00     .00     .00     .00
0 25      .00     .00     .00     .00     .00     .00     .00     .00     .00     .00     .00     .00     .00     .00     .00
1                      HEAD IN LAYER  9 AT END OF TIME STEP 12 IN STRESS PERIOD  1
           -----------------------------------------------------------------------

          16      17      18      19      20      21      22      23      24      25
 ........................................................................................
0  1     -.01     .00     .00     .00     .00     .00     .00     .00     .00     .00
0  2     -.01     .00     .00     .00     .00     .00     .00     .00     .00     .00
0  3     -.01     .00     .00     .00     .00     .00     .00     .00     .00     .00
0  4     -.01     .00     .00     .00     .00     .00     .00     .00     .00     .00
0  5     -.01     .00     .00     .00     .00     .00     .00     .00     .00     .00
0  6     -.01     .00     .00     .00     .00     .00     .00     .00     .00     .00
0  7     -.01     .00     .00     .00     .00     .00     .00     .00     .00     .00
0  8     -.01     .00     .00     .00     .00     .00     .00     .00     .00     .00
0  9     -.01     .00     .00     .00     .00     .00     .00     .00     .00     .00
0 10     -.00     .00     .00     .00     .00     .00     .00     .00     .00     .00
0 11     -.00     .00     .00     .00     .00     .00     .00     .00     .00     .00
0 12     -.00     .00     .00     .00     .00     .00     .00     .00     .00     .00
0 13     -.00     .00     .00     .00     .00     .00     .00     .00     .00     .00
0 14     -.00     .00     .00     .00     .00     .00     .00     .00     .00     .00
0 15      .00     .00     .00     .00     .00     .00     .00     .00     .00     .00
0 16      .00     .00     .00     .00     .00     .00     .00     .00     .00     .00
0 17      .00     .00     .00     .00     .00     .00     .00     .00     .00     .00
0 18      .00     .00     .00     .00     .00     .00     .00     .00     .00     .00
0 19      .00     .00     .00     .00     .00     .00     .00     .00     .00     .00
0 20      .00     .00     .00     .00     .00     .00     .00     .00     .00     .00
0 21      .00     .00     .00     .00     .00     .00     .00     .00     .00     .00
0 22      .00     .00     .00     .00     .00     .00     .00     .00     .00     .00
0 23      .00     .00     .00     .00     .00     .00     .00     .00     .00     .00
0 24      .00     .00     .00     .00     .00     .00     .00     .00     .00     .00
0 25      .00     .00     .00     .00     .00     .00     .00     .00     .00     .00
1                      HEAD IN LAYER 10 AT END OF TIME STEP 12 IN STRESS PERIOD  1
           -----------------------------------------------------------------------

           1       2       3       4       5       6       7       8       9      10      11      12      13      14      15
 ................................................................................................................................
0  1  -106.27  -86.64  -72.98  -62.00  -51.51  -41.32  -31.89  -23.27  -15.82  -10.67   -6.74   -3.69   -1.55    -.43    -.07
0  2   -86.64  -80.06  -70.85  -61.27  -51.25  -41.23  -31.86  -23.25  -15.81  -10.67   -6.73   -3.69   -1.55    -.43    -.07
0  3   -72.98  -70.85  -66.00  -59.08  -50.39  -40.91  -31.73  -23.20  -15.79  -10.66   -6.73   -3.68   -1.55    -.43    -.07
0  4   -62.00  -61.27  -59.08  -54.99  -48.46  -40.12  -31.42  -23.08  -15.74  -10.64   -6.72   -3.68   -1.54    -.43    -.07
0  5   -51.51  -51.25  -50.39  -48.46  -44.56  -38.26  -30.63  -22.76  -15.62  -10.58   -6.69   -3.67   -1.54    -.43    -.07
0  6   -41.32  -41.23  -40.91  -40.12  -38.26  -34.49  -28.77  -21.95  -15.28  -10.42   -6.62   -3.64   -1.53    -.43    -.07
0  7   -31.89  -31.86  -31.73  -31.42  -30.63  -28.77  -25.28  -20.20  -14.50  -10.05   -6.45   -3.57   -1.51    -.43    -.07
0  8   -23.27  -23.25  -23.20  -23.08  -22.76  -21.95  -20.20  -17.10  -12.94   -9.24   -6.07   -3.41   -1.46    -.41    -.07
0  9   -15.82  -15.81  -15.79  -15.74  -15.62  -15.28  -14.50  -12.94  -10.42   -7.81   -5.33   -3.08   -1.35    -.39    -.06
0 10   -10.67  -10.67  -10.66  -10.64  -10.58  -10.42  -10.05   -9.24   -7.81   -6.12   -4.36   -2.62   -1.19    -.35    -.06
0 11    -6.74   -6.73   -6.73   -6.72   -6.69   -6.62   -6.45   -6.07   -5.33   -4.36   -3.25   -2.05    -.98    -.30    -.05
0 12    -3.69   -3.69   -3.68   -3.68   -3.67   -3.64   -3.57   -3.41   -3.08   -2.62   -2.05   -1.38    -.70    -.23    -.04
0 13    -1.55   -1.55   -1.55   -1.55   -1.54   -1.53   -1.51   -1.46   -1.35   -1.19    -.98    -.70    -.38    -.14    -.03
0 14     -.43    -.43    -.43    -.43    -.43    -.43    -.43    -.41    -.39    -.35    -.30    -.23    -.14    -.06    -.01
0 15     -.07    -.07    -.07    -.07    -.07    -.07    -.07    -.07    -.06    -.06    -.05    -.04    -.03    -.01    -.00
0 16     -.01    -.01    -.01    -.01    -.01    -.01    -.01    -.01    -.01    -.01    -.00    -.00    -.00    -.00     .00
0 17      .00     .00     .00     .00     .00     .00     .00     .00     .00     .00     .00     .00     .00     .00     .00
0 18      .00     .00     .00     .00     .00     .00     .00     .00     .00     .00     .00     .00     .00     .00     .00
0 19      .00     .00     .00     .00     .00     .00     .00     .00     .00     .00     .00     .00     .00     .00     .00
0 20      .00     .00     .00     .00     .00     .00     .00     .00     .00     .00     .00     .00     .00     .00     .00
0 21      .00     .00     .00     .00     .00     .00     .00     .00     .00     .00     .00     .00     .00     .00     .00
0 22      .00     .00     .00     .00     .00     .00     .00     .00     .00     .00     .00     .00     .00     .00     .00
0 23      .00     .00     .00     .00     .00     .00     .00     .00     .00     .00     .00     .00     .00     .00     .00
0 24      .00     .00     .00     .00     .00     .00     .00     .00     .00     .00     .00     .00     .00     .00     .00
0 25      .00     .00     .00     .00     .00     .00     .00     .00     .00     .00     .00     .00     .00     .00     .00
1                      HEAD IN LAYER 10 AT END OF TIME STEP 12 IN STRESS PERIOD  1
           -----------------------------------------------------------------------

          16      17      18      19      20      21      22      23      24      25
 ........................................................................................
0  1     -.01     .00     .00     .00     .00     .00     .00     .00     .00     .00
0  2     -.01     .00     .00     .00     .00     .00     .00     .00     .00     .00
0  3     -.01     .00     .00     .00     .00     .00     .00     .00     .00     .00
0  4     -.01     .00     .00     .00     .00     .00     .00     .00     .00     .00
0  5     -.01     .00     .00     .00     .00     .00     .00     .00     .00     .00
0  6     -.01     .00     .00     .00     .00     .00     .00     .00     .00     .00
0  7     -.01     .00     .00     .00     .00     .00     .00     .00     .00     .00
0  8     -.01     .00     .00     .00     .00     .00     .00     .00     .00     .00
0  9     -.01     .00     .00     .00     .00     .00     .00     .00     .00     .00
0 10     -.01     .00     .00     .00     .00     .00     .00     .00     .00     .00
0 11     -.00     .00     .00     .00     .00     .00     .00     .00     .00     .00
0 12     -.00     .00     .00     .00     .00     .00     .00     .00     .00     .00
0 13     -.00     .00     .00     .00     .00     .00     .00     .00     .00     .00
0 14     -.00     .00     .00     .00     .00     .00     .00     .00     .00     .00
0 15      .00     .00     .00     .00     .00     .00     .00     .00     .00     .00
0 16      .00     .00     .00     .00     .00     .00     .00     .00     .00     .00
0 17      .00     .00     .00     .00     .00     .00     .00     .00     .00     .00
0 18      .00     .00     .00     .00     .00     .00     .00     .00     .00     .00
0 19      .00     .00     .00     .00     .00     .00     .00     .00     .00     .00
0 20      .00     .00     .00     .00     .00     .00     .00     .00     .00     .00
0 21      .00     .00     .00     .00     .00     .00     .00     .00     .00     .00
0 22      .00     .00     .00     .00     .00     .00     .00     .00     .00     .00
0 23      .00     .00     .00     .00     .00     .00     .00     .00     .00     .00
0 24      .00     .00     .00     .00     .00     .00     .00     .00     .00     .00
0 25      .00     .00     .00     .00     .00     .00     .00     .00     .00     .00
0


                              VOLUMETRIC BUDGET FOR ENTIRE MODEL AT END OF TIME STEP 12 IN STRESS PERIOD  1
                              -----------------------------------------------------------------------------
0                   CUMULATIVE VOLUMES      L**3                                     RATES FOR THIS TIME STEP      L**3/T
                    ------------------                                               ------------------------

                          IN:                                                                    IN:
                          ---                                                                    ---
                            STORAGE =    2385.8                                                    STORAGE =    1.5707    
                      CONSTANT HEAD =    .17374E-04                                          CONSTANT HEAD =    .35613E-07
                              WELLS =    .00000                                                      WELLS =    .00000    
0                          TOTAL IN =    2385.8                                                   TOTAL IN =    1.5707    
0                        OUT:                                                                   OUT:
                         ----                                                                   ----
                            STORAGE =    .00000                                                    STORAGE =    .00000    
                      CONSTANT HEAD =    .00000                                              CONSTANT HEAD =    .00000    
                              WELLS =    2385.9                                                      WELLS =    1.5707    
0                         TOTAL OUT =    2385.9                                                  TOTAL OUT =    1.5707    
0                          IN - OUT =   -.12183                                                   IN - OUT =   -.89288E-04
0               PERCENT DISCREPANCY =                -.01                              PERCENT DISCREPANCY =                -.01



0


          TIME SUMMARY AT END OF TIME STEP 12 IN STRESS PERIOD  1
                               SECONDS        MINUTES         HOURS          DAYS           YEARS
                           ---------------------------------------------------------------------------
      TIME STEP LENGTH         451.800        7.52999        .125500        .522916E-02    .143167E-04
    STRESS PERIOD TIME         1518.95        25.3158        .421930        .175804E-01    .481326E-04
 TOTAL SIMULATION TIME         1518.95        25.3158        .421930        .175804E-01    .481326E-04
1
    16 ITERATIONS FOR TIME STEP  13 IN STRESS PERIOD  1
0MAXIMUM HEAD CHANGE FOR EACH ITERATION:
0 HEAD CHANGE LAYER,ROW,COL HEAD CHANGE LAYER,ROW,COL HEAD CHANGE LAYER,ROW,COL HEAD CHANGE LAYER,ROW,COL HEAD CHANGE LAYER,ROW,COL
 ------------------------------------------------------------------------------------------------------------------------------------
   -4.292     (  7,  4,  4)  -1.971     (  7,  2,  2)  -1.498     (  9,  1,  1)  -.4992     ( 10,  1,  1)  -.4991     ( 10,  6,  1)
    .3855E-01 ( 10,  9,  1)   .5907E-01 (  9, 11,  1)   .3074E-01 ( 10,  9,  1)  -.9326E-01 ( 10,  4,  1)   .2698E-01 ( 10,  6,  4)
   -.3101E-02 (  8,  5,  5)  -.2749E-02 ( 10,  2,  3)  -.1184E-01 ( 10,  1,  1)   .2367E-02 ( 10,  6,  5)   .1733E-02 ( 10,  1,  1)
    .2065E-03 ( 10, 11,  1)
0
0HEAD/DRAWDOWN PRINTOUT FLAG = 1     TOTAL BUDGET PRINTOUT FLAG = 1     CELL-BY-CELL FLOW TERM FLAG = 0
 REUSING PREVIOUS VALUES OF IOFLG
1                      HEAD IN LAYER  9 AT END OF TIME STEP 13 IN STRESS PERIOD  1
           -----------------------------------------------------------------------

           1       2       3       4       5       6       7       8       9      10      11      12      13      14      15
 ................................................................................................................................
0  1  -105.81  -86.25  -72.72  -61.90  -51.65  -41.75  -32.62  -24.26  -16.97  -11.85   -7.83   -4.58   -2.14    -.70    -.14
0  2   -86.25  -79.72  -70.61  -61.18  -51.39  -41.66  -32.59  -24.25  -16.97  -11.84   -7.83   -4.58   -2.14    -.70    -.14
0  3   -72.72  -70.61  -65.83  -59.04  -50.55  -41.34  -32.47  -24.20  -16.95  -11.84   -7.82   -4.58   -2.14    -.70    -.14
0  4   -61.90  -61.18  -59.04  -55.04  -48.67  -40.58  -32.16  -24.08  -16.90  -11.81   -7.81   -4.58   -2.14    -.70    -.14
0  5   -51.65  -51.39  -50.55  -48.67  -44.88  -38.78  -31.40  -23.77  -16.78  -11.75   -7.79   -4.56   -2.13    -.70    -.14
0  6   -41.75  -41.66  -41.34  -40.58  -38.78  -35.13  -29.60  -22.98  -16.45  -11.60   -7.71   -4.53   -2.12    -.70    -.14
0  7   -32.62  -32.59  -32.47  -32.16  -31.40  -29.60  -26.21  -21.27  -15.68  -11.22   -7.53   -4.45   -2.09    -.69    -.13
0  8   -24.26  -24.25  -24.20  -24.08  -23.77  -22.98  -21.27  -18.24  -14.12  -10.41   -7.13   -4.28   -2.03    -.68    -.13
0  9   -16.97  -16.97  -16.95  -16.90  -16.78  -16.45  -15.68  -14.12  -11.60   -8.94   -6.35   -3.92   -1.90    -.64    -.13
0 10   -11.85  -11.84  -11.84  -11.81  -11.75  -11.60  -11.22  -10.41   -8.94   -7.19   -5.32   -3.40   -1.70    -.59    -.12
0 11    -7.83   -7.83   -7.82   -7.81   -7.79   -7.71   -7.53   -7.13   -6.35   -5.32   -4.11   -2.75   -1.44    -.52    -.11
0 12    -4.58   -4.58   -4.58   -4.58   -4.56   -4.53   -4.46   -4.28   -3.92   -3.40   -2.75   -1.94   -1.08    -.41    -.09
0 13    -2.14   -2.14   -2.14   -2.14   -2.13   -2.12   -2.09   -2.03   -1.90   -1.70   -1.44   -1.08    -.64    -.27    -.06
0 14     -.70    -.70    -.70    -.70    -.70    -.70    -.69    -.68    -.64    -.59    -.52    -.41    -.27    -.12    -.03
0 15     -.14    -.14    -.14    -.14    -.14    -.14    -.13    -.13    -.13    -.12    -.11    -.09    -.06    -.03    -.01
0 16     -.02    -.02    -.02    -.02    -.02    -.02    -.02    -.02    -.01    -.01    -.01    -.01    -.01    -.00    -.00
0 17     -.00    -.00    -.00    -.00    -.00    -.00    -.00    -.00    -.00    -.00     .00     .00     .00     .00     .00
0 18      .00     .00     .00     .00     .00     .00     .00     .00     .00     .00     .00     .00     .00     .00     .00
0 19      .00     .00     .00     .00     .00     .00     .00     .00     .00     .00     .00     .00     .00     .00     .00
0 20      .00     .00     .00     .00     .00     .00     .00     .00     .00     .00     .00     .00     .00     .00     .00
0 21      .00     .00     .00     .00     .00     .00     .00     .00     .00     .00     .00     .00     .00     .00     .00
0 22      .00     .00     .00     .00     .00     .00     .00     .00     .00     .00     .00     .00     .00     .00     .00
0 23      .00     .00     .00     .00     .00     .00     .00     .00     .00     .00     .00     .00     .00     .00     .00
0 24      .00     .00     .00     .00     .00     .00     .00     .00     .00     .00     .00     .00     .00     .00     .00
0 25      .00     .00     .00     .00     .00     .00     .00     .00     .00     .00     .00     .00     .00     .00     .00
1                      HEAD IN LAYER  9 AT END OF TIME STEP 13 IN STRESS PERIOD  1
           -----------------------------------------------------------------------

          16      17      18      19      20      21      22      23      24      25
 ........................................................................................
0  1     -.02    -.00     .00     .00     .00     .00     .00     .00     .00     .00
0  2     -.02    -.00     .00     .00     .00     .00     .00     .00     .00     .00
0  3     -.02    -.00     .00     .00     .00     .00     .00     .00     .00     .00
0  4     -.02    -.00     .00     .00     .00     .00     .00     .00     .00     .00
0  5     -.02    -.00     .00     .00     .00     .00     .00     .00     .00     .00
0  6     -.02    -.00     .00     .00     .00     .00     .00     .00     .00     .00
0  7     -.02    -.00     .00     .00     .00     .00     .00     .00     .00     .00
0  8     -.02    -.00     .00     .00     .00     .00     .00     .00     .00     .00
0  9     -.01    -.00     .00     .00     .00     .00     .00     .00     .00     .00
0 10     -.01    -.00     .00     .00     .00     .00     .00     .00     .00     .00
0 11     -.01     .00     .00     .00     .00     .00     .00     .00     .00     .00
0 12     -.01     .00     .00     .00     .00     .00     .00     .00     .00     .00
0 13     -.01     .00     .00     .00     .00     .00     .00     .00     .00     .00
0 14     -.00     .00     .00     .00     .00     .00     .00     .00     .00     .00
0 15     -.00     .00     .00     .00     .00     .00     .00     .00     .00     .00
0 16      .00     .00     .00     .00     .00     .00     .00     .00     .00     .00
0 17      .00     .00     .00     .00     .00     .00     .00     .00     .00     .00
0 18      .00     .00     .00     .00     .00     .00     .00     .00     .00     .00
0 19      .00     .00     .00     .00     .00     .00     .00     .00     .00     .00
0 20      .00     .00     .00     .00     .00     .00     .00     .00     .00     .00
0 21      .00     .00     .00     .00     .00     .00     .00     .00     .00     .00
0 22      .00     .00     .00     .00     .00     .00     .00     .00     .00     .00
0 23      .00     .00     .00     .00     .00     .00     .00     .00     .00     .00
0 24      .00     .00     .00     .00     .00     .00     .00     .00     .00     .00
0 25      .00     .00     .00     .00     .00     .00     .00     .00     .00     .00
1                      HEAD IN LAYER 10 AT END OF TIME STEP 13 IN STRESS PERIOD  1
           -----------------------------------------------------------------------

           1       2       3       4       5       6       7       8       9      10      11      12      13      14      15
 ................................................................................................................................
0  1  -108.71  -89.08  -75.42  -64.44  -53.94  -43.74  -34.26  -25.54  -17.93  -12.55   -8.33   -4.89   -2.30    -.76    -.15
0  2   -89.08  -82.50  -73.29  -63.70  -53.68  -43.64  -34.22  -25.53  -17.92  -12.55   -8.32   -4.89   -2.30    -.76    -.15
0  3   -75.42  -73.29  -68.44  -61.52  -52.82  -43.32  -34.10  -25.48  -17.90  -12.54   -8.32   -4.89   -2.29    -.76    -.15
0  4   -64.44  -63.70  -61.52  -57.42  -50.88  -42.52  -33.78  -25.36  -17.85  -12.52   -8.31   -4.89   -2.29    -.76    -.15
0  5   -53.94  -53.68  -52.82  -50.88  -46.98  -40.66  -32.99  -25.03  -17.72  -12.45   -8.28   -4.87   -2.29    -.76    -.15
0  6   -43.74  -43.64  -43.32  -42.52  -40.66  -36.87  -31.11  -24.21  -17.38  -12.29   -8.20   -4.84   -2.28    -.75    -.15
0  7   -34.26  -34.22  -34.10  -33.78  -32.99  -31.11  -27.58  -22.42  -16.57  -11.89   -8.01   -4.76   -2.25    -.75    -.15
0  8   -25.54  -25.53  -25.48  -25.36  -25.03  -24.21  -22.42  -19.25  -14.94  -11.04   -7.59   -4.57   -2.18    -.73    -.14
0  9   -17.93  -17.92  -17.90  -17.85  -17.72  -17.38  -16.57  -14.94  -12.30   -9.50   -6.77   -4.19   -2.04    -.70    -.14
0 10   -12.55  -12.55  -12.54  -12.52  -12.45  -12.29  -11.89  -11.04   -9.50   -7.65   -5.67   -3.64   -1.83    -.64    -.13
0 11    -8.33   -8.32   -8.32   -8.31   -8.28   -8.20   -8.01   -7.59   -6.77   -5.67   -4.39   -2.94   -1.55    -.56    -.12
0 12    -4.89   -4.89   -4.89   -4.89   -4.87   -4.84   -4.76   -4.57   -4.19   -3.64   -2.94   -2.08   -1.16    -.44    -.10
0 13    -2.30   -2.30   -2.30   -2.29   -2.29   -2.28   -2.25   -2.18   -2.04   -1.83   -1.55   -1.16    -.70    -.29    -.07
0 14     -.76    -.76    -.76    -.76    -.76    -.75    -.75    -.73    -.70    -.64    -.56    -.44    -.29    -.13    -.03
0 15     -.15    -.15    -.15    -.15    -.15    -.15    -.15    -.14    -.14    -.13    -.12    -.10    -.07    -.03    -.01
0 16     -.02    -.02    -.02    -.02    -.02    -.02    -.02    -.02    -.02    -.02    -.01    -.01    -.01    -.01    -.00
0 17     -.00    -.00    -.00    -.00    -.00    -.00    -.00    -.00    -.00    -.00    -.00     .00     .00     .00     .00
0 18      .00     .00     .00     .00     .00     .00     .00     .00     .00     .00     .00     .00     .00     .00     .00
0 19      .00     .00     .00     .00     .00     .00     .00     .00     .00     .00     .00     .00     .00     .00     .00
0 20      .00     .00     .00     .00     .00     .00     .00     .00     .00     .00     .00     .00     .00     .00     .00
0 21      .00     .00     .00     .00     .00     .00     .00     .00     .00     .00     .00     .00     .00     .00     .00
0 22      .00     .00     .00     .00     .00     .00     .00     .00     .00     .00     .00     .00     .00     .00     .00
0 23      .00     .00     .00     .00     .00     .00     .00     .00     .00     .00     .00     .00     .00     .00     .00
0 24      .00     .00     .00     .00     .00     .00     .00     .00     .00     .00     .00     .00     .00     .00     .00
0 25      .00     .00     .00     .00     .00     .00     .00     .00     .00     .00     .00     .00     .00     .00     .00
1                      HEAD IN LAYER 10 AT END OF TIME STEP 13 IN STRESS PERIOD  1
           -----------------------------------------------------------------------

          16      17      18      19      20      21      22      23      24      25
 ........................................................................................
0  1     -.02    -.00     .00     .00     .00     .00     .00     .00     .00     .00
0  2     -.02    -.00     .00     .00     .00     .00     .00     .00     .00     .00
0  3     -.02    -.00     .00     .00     .00     .00     .00     .00     .00     .00
0  4     -.02    -.00     .00     .00     .00     .00     .00     .00     .00     .00
0  5     -.02    -.00     .00     .00     .00     .00     .00     .00     .00     .00
0  6     -.02    -.00     .00     .00     .00     .00     .00     .00     .00     .00
0  7     -.02    -.00     .00     .00     .00     .00     .00     .00     .00     .00
0  8     -.02    -.00     .00     .00     .00     .00     .00     .00     .00     .00
0  9     -.02    -.00     .00     .00     .00     .00     .00     .00     .00     .00
0 10     -.02    -.00     .00     .00     .00     .00     .00     .00     .00     .00
0 11     -.01    -.00     .00     .00     .00     .00     .00     .00     .00     .00
0 12     -.01     .00     .00     .00     .00     .00     .00     .00     .00     .00
0 13     -.01     .00     .00     .00     .00     .00     .00     .00     .00     .00
0 14     -.01     .00     .00     .00     .00     .00     .00     .00     .00     .00
0 15     -.00     .00     .00     .00     .00     .00     .00     .00     .00     .00
0 16      .00     .00     .00     .00     .00     .00     .00     .00     .00     .00
0 17      .00     .00     .00     .00     .00     .00     .00     .00     .00     .00
0 18      .00     .00     .00     .00     .00     .00     .00     .00     .00     .00
0 19      .00     .00     .00     .00     .00     .00     .00     .00     .00     .00
0 20      .00     .00     .00     .00     .00     .00     .00     .00     .00     .00
0 21      .00     .00     .00     .00     .00     .00     .00     .00     .00     .00
0 22      .00     .00     .00     .00     .00     .00     .00     .00     .00     .00
0 23      .00     .00     .00     .00     .00     .00     .00     .00     .00     .00
0 24      .00     .00     .00     .00     .00     .00     .00     .00     .00     .00
0 25      .00     .00     .00     .00     .00     .00     .00     .00     .00     .00
0


                              VOLUMETRIC BUDGET FOR ENTIRE MODEL AT END OF TIME STEP 13 IN STRESS PERIOD  1
                              -----------------------------------------------------------------------------
0                   CUMULATIVE VOLUMES      L**3                                     RATES FOR THIS TIME STEP      L**3/T
                    ------------------                                               ------------------------

                          IN:                                                                    IN:
                          ---                                                                    ---
                            STORAGE =    3389.2                                                    STORAGE =    1.5707    
                      CONSTANT HEAD =    .20965E-03                                          CONSTANT HEAD =    .30098E-06
                              WELLS =    .00000                                                      WELLS =    .00000    
0                          TOTAL IN =    3389.2                                                   TOTAL IN =    1.5707    
0                        OUT:                                                                   OUT:
                         ----                                                                   ----
                            STORAGE =    .00000                                                    STORAGE =    .00000    
                      CONSTANT HEAD =    .00000                                              CONSTANT HEAD =    .00000    
                              WELLS =    3389.4                                                      WELLS =    1.5707    
0                         TOTAL OUT =    3389.4                                                  TOTAL OUT =    1.5707    
0                          IN - OUT =   -.17212                                                   IN - OUT =   -.78678E-04
0               PERCENT DISCREPANCY =                -.01                              PERCENT DISCREPANCY =                -.01



0


          TIME SUMMARY AT END OF TIME STEP 13 IN STRESS PERIOD  1
                               SECONDS        MINUTES         HOURS          DAYS           YEARS
                           ---------------------------------------------------------------------------
      TIME STEP LENGTH         638.845        10.6474        .177457        .739404E-02    .202438E-04
    STRESS PERIOD TIME         2157.79        35.9632        .599387        .249745E-01    .683763E-04
 TOTAL SIMULATION TIME         2157.79        35.9632        .599387        .249745E-01    .683763E-04
1
    16 ITERATIONS FOR TIME STEP  14 IN STRESS PERIOD  1
0MAXIMUM HEAD CHANGE FOR EACH ITERATION:
0 HEAD CHANGE LAYER,ROW,COL HEAD CHANGE LAYER,ROW,COL HEAD CHANGE LAYER,ROW,COL HEAD CHANGE LAYER,ROW,COL HEAD CHANGE LAYER,ROW,COL
 ------------------------------------------------------------------------------------------------------------------------------------
   -4.044     (  7,  4,  4)  -2.219     (  7,  2,  2)  -1.337     (  9,  1,  1)  -.5356     ( 10,  1,  1)  -.5702     ( 10,  6,  1)
    .3731E-01 ( 10, 11,  1)   .6433E-01 (  9, 11,  1)   .3834E-01 ( 10,  9,  1)  -.7655E-01 ( 10,  4,  3)   .2468E-01 ( 10,  6,  5)
   -.2718E-02 (  8,  5,  6)  -.2598E-02 ( 10,  2,  3)  -.1160E-01 ( 10,  1,  1)   .2403E-02 ( 10,  6,  5)   .1690E-02 ( 10,  1,  1)
    .2209E-03 ( 10, 11,  1)
0
0HEAD/DRAWDOWN PRINTOUT FLAG = 1     TOTAL BUDGET PRINTOUT FLAG = 1     CELL-BY-CELL FLOW TERM FLAG = 0
 REUSING PREVIOUS VALUES OF IOFLG
1                      HEAD IN LAYER  9 AT END OF TIME STEP 14 IN STRESS PERIOD  1
           -----------------------------------------------------------------------

           1       2       3       4       5       6       7       8       9      10      11      12      13      14      15
 ................................................................................................................................
0  1  -108.48  -88.92  -75.38  -64.56  -54.27  -44.32  -35.11  -26.62  -19.14  -13.79   -9.50   -5.89   -3.02   -1.14    -.27
0  2   -88.92  -82.38  -73.27  -63.84  -54.02  -44.23  -35.07  -26.60  -19.14  -13.78   -9.49   -5.89   -3.02   -1.14    -.27
0  3   -75.38  -73.27  -68.49  -61.69  -53.17  -43.91  -34.95  -26.55  -19.12  -13.78   -9.49   -5.89   -3.01   -1.14    -.27
0  4   -64.56  -63.84  -61.69  -57.68  -51.28  -43.14  -34.64  -26.43  -19.07  -13.75   -9.48   -5.89   -3.01   -1.14    -.27
0  5   -54.27  -54.02  -53.17  -51.28  -47.47  -41.33  -33.87  -26.12  -18.94  -13.69   -9.45   -5.87   -3.01   -1.14    -.27
0  6   -44.32  -44.23  -43.91  -43.14  -41.33  -37.64  -32.04  -25.31  -18.60  -13.53   -9.37   -5.84   -2.99   -1.13    -.27
0  7   -35.11  -35.07  -34.95  -34.64  -33.87  -32.04  -28.60  -23.56  -17.80  -13.13   -9.18   -5.75   -2.96   -1.12    -.27
0  8   -26.62  -26.60  -26.55  -26.43  -26.12  -25.31  -23.56  -20.45  -16.18  -12.27   -8.74   -5.55   -2.89   -1.10    -.26
0  9   -19.14  -19.14  -19.12  -19.07  -18.94  -18.60  -17.80  -16.18  -13.54  -10.70   -7.88   -5.13   -2.72   -1.06    -.25
0 10   -13.79  -13.78  -13.78  -13.75  -13.69  -13.53  -13.13  -12.27  -10.70   -8.80   -6.73   -4.53   -2.48    -.98    -.24
0 11    -9.50   -9.50   -9.49   -9.48   -9.45   -9.37   -9.18   -8.74   -7.88   -6.73   -5.35   -3.76   -2.14    -.88    -.22
0 12    -5.89   -5.89   -5.89   -5.89   -5.87   -5.84   -5.75   -5.55   -5.13   -4.53   -3.76   -2.77   -1.66    -.72    -.19
0 13    -3.02   -3.02   -3.01   -3.01   -3.01   -2.99   -2.96   -2.89   -2.72   -2.48   -2.14   -1.66   -1.07    -.50    -.14
0 14    -1.14   -1.14   -1.14   -1.14   -1.14   -1.13   -1.12   -1.10   -1.06    -.98    -.88    -.72    -.50    -.26    -.08
0 15     -.27    -.27    -.27    -.27    -.27    -.27    -.27    -.26    -.25    -.24    -.22    -.19    -.14    -.08    -.03
0 16     -.04    -.04    -.04    -.04    -.04    -.04    -.04    -.04    -.04    -.04    -.03    -.03    -.02    -.01    -.01
0 17     -.00    -.00    -.00    -.00    -.00    -.00    -.00    -.00    -.00    -.00    -.00    -.00    -.00    -.00     .00
0 18      .00     .00     .00     .00     .00     .00     .00     .00     .00     .00     .00     .00     .00     .00     .00
0 19      .00     .00     .00     .00     .00     .00     .00     .00     .00     .00     .00     .00     .00     .00     .00
0 20      .00     .00     .00     .00     .00     .00     .00     .00     .00     .00     .00     .00     .00     .00     .00
0 21      .00     .00     .00     .00     .00     .00     .00     .00     .00     .00     .00     .00     .00     .00     .00
0 22      .00     .00     .00     .00     .00     .00     .00     .00     .00     .00     .00     .00     .00     .00     .00
0 23      .00     .00     .00     .00     .00     .00     .00     .00     .00     .00     .00     .00     .00     .00     .00
0 24      .00     .00     .00     .00     .00     .00     .00     .00     .00     .00     .00     .00     .00     .00     .00
0 25      .00     .00     .00     .00     .00     .00     .00     .00     .00     .00     .00     .00     .00     .00     .00
1                      HEAD IN LAYER  9 AT END OF TIME STEP 14 IN STRESS PERIOD  1
           -----------------------------------------------------------------------

          16      17      18      19      20      21      22      23      24      25
 ........................................................................................
0  1     -.04    -.00     .00     .00     .00     .00     .00     .00     .00     .00
0  2     -.04    -.00     .00     .00     .00     .00     .00     .00     .00     .00
0  3     -.04    -.00     .00     .00     .00     .00     .00     .00     .00     .00
0  4     -.04    -.00     .00     .00     .00     .00     .00     .00     .00     .00
0  5     -.04    -.00     .00     .00     .00     .00     .00     .00     .00     .00
0  6     -.04    -.00     .00     .00     .00     .00     .00     .00     .00     .00
0  7     -.04    -.00     .00     .00     .00     .00     .00     .00     .00     .00
0  8     -.04    -.00     .00     .00     .00     .00     .00     .00     .00     .00
0  9     -.04    -.00     .00     .00     .00     .00     .00     .00     .00     .00
0 10     -.04    -.00     .00     .00     .00     .00     .00     .00     .00     .00
0 11     -.03    -.00     .00     .00     .00     .00     .00     .00     .00     .00
0 12     -.03    -.00     .00     .00     .00     .00     .00     .00     .00     .00
0 13     -.02    -.00     .00     .00     .00     .00     .00     .00     .00     .00
0 14     -.01    -.00     .00     .00     .00     .00     .00     .00     .00     .00
0 15     -.01     .00     .00     .00     .00     .00     .00     .00     .00     .00
0 16     -.00     .00     .00     .00     .00     .00     .00     .00     .00     .00
0 17      .00     .00     .00     .00     .00     .00     .00     .00     .00     .00
0 18      .00     .00     .00     .00     .00     .00     .00     .00     .00     .00
0 19      .00     .00     .00     .00     .00     .00     .00     .00     .00     .00
0 20      .00     .00     .00     .00     .00     .00     .00     .00     .00     .00
0 21      .00     .00     .00     .00     .00     .00     .00     .00     .00     .00
0 22      .00     .00     .00     .00     .00     .00     .00     .00     .00     .00
0 23      .00     .00     .00     .00     .00     .00     .00     .00     .00     .00
0 24      .00     .00     .00     .00     .00     .00     .00     .00     .00     .00
0 25      .00     .00     .00     .00     .00     .00     .00     .00     .00     .00
1                      HEAD IN LAYER 10 AT END OF TIME STEP 14 IN STRESS PERIOD  1
           -----------------------------------------------------------------------

           1       2       3       4       5       6       7       8       9      10      11      12      13      14      15
 ................................................................................................................................
0  1  -111.07  -91.43  -77.77  -66.79  -56.29  -46.07  -36.56  -27.77  -20.02  -14.45   -9.98   -6.22   -3.19   -1.21    -.29
0  2   -91.43  -84.85  -75.64  -66.05  -56.03  -45.97  -36.52  -27.76  -20.02  -14.45   -9.98   -6.22   -3.19   -1.21    -.29
0  3   -77.77  -75.64  -70.79  -63.87  -55.16  -45.65  -36.40  -27.71  -20.00  -14.44   -9.98   -6.21   -3.19   -1.21    -.29
0  4   -66.79  -66.05  -63.87  -59.77  -53.23  -44.85  -36.08  -27.58  -19.94  -14.42   -9.97   -6.21   -3.19   -1.21    -.29
0  5   -56.29  -56.03  -55.16  -53.23  -49.31  -42.99  -35.28  -27.25  -19.81  -14.35   -9.94   -6.20   -3.19   -1.21    -.29
0  6   -46.07  -45.97  -45.65  -44.85  -42.99  -39.18  -33.39  -26.42  -19.46  -14.18   -9.85   -6.16   -3.17   -1.21    -.29
0  7   -36.56  -36.52  -36.40  -36.08  -35.28  -33.39  -29.83  -24.60  -18.63  -13.77   -9.65   -6.07   -3.14   -1.20    -.28
0  8   -27.77  -27.76  -27.71  -27.58  -27.25  -26.42  -24.60  -21.38  -16.95  -12.87   -9.19   -5.85   -3.06   -1.17    -.28
0  9   -20.02  -20.02  -20.00  -19.94  -19.81  -19.46  -18.63  -16.95  -14.20  -11.24   -8.30   -5.42   -2.89   -1.13    -.27
0 10   -14.45  -14.45  -14.44  -14.42  -14.35  -14.18  -13.77  -12.87  -11.24   -9.26   -7.09   -4.79   -2.63   -1.05    -.26
0 11    -9.98   -9.98   -9.98   -9.97   -9.94   -9.85   -9.65   -9.19   -8.30   -7.09   -5.65   -3.98   -2.27    -.93    -.23
0 12    -6.22   -6.22   -6.21   -6.21   -6.20   -6.16   -6.07   -5.85   -5.42   -4.79   -3.98   -2.94   -1.77    -.76    -.20
0 13    -3.19   -3.19   -3.19   -3.19   -3.19   -3.17   -3.14   -3.06   -2.89   -2.63   -2.27   -1.77   -1.14    -.53    -.15
0 14    -1.21   -1.21   -1.21   -1.21   -1.21   -1.21   -1.20   -1.18   -1.13   -1.05    -.93    -.77    -.53    -.27    -.09
0 15     -.29    -.29    -.29    -.29    -.29    -.29    -.28    -.28    -.27    -.26    -.23    -.20    -.15    -.09    -.03
0 16     -.04    -.04    -.04    -.04    -.04    -.04    -.04    -.04    -.04    -.04    -.04    -.03    -.02    -.02    -.01
0 17     -.00    -.00    -.00    -.00    -.00    -.00    -.00    -.00    -.00    -.00    -.00    -.00    -.00    -.00     .00
0 18      .00     .00     .00     .00     .00     .00     .00     .00     .00     .00     .00     .00     .00     .00     .00
0 19      .00     .00     .00     .00     .00     .00     .00     .00     .00     .00     .00     .00     .00     .00     .00
0 20      .00     .00     .00     .00     .00     .00     .00     .00     .00     .00     .00     .00     .00     .00     .00
0 21      .00     .00     .00     .00     .00     .00     .00     .00     .00     .00     .00     .00     .00     .00     .00
0 22      .00     .00     .00     .00     .00     .00     .00     .00     .00     .00     .00     .00     .00     .00     .00
0 23      .00     .00     .00     .00     .00     .00     .00     .00     .00     .00     .00     .00     .00     .00     .00
0 24      .00     .00     .00     .00     .00     .00     .00     .00     .00     .00     .00     .00     .00     .00     .00
0 25      .00     .00     .00     .00     .00     .00     .00     .00     .00     .00     .00     .00     .00     .00     .00
1                      HEAD IN LAYER 10 AT END OF TIME STEP 14 IN STRESS PERIOD  1
           -----------------------------------------------------------------------

          16      17      18      19      20      21      22      23      24      25
 ........................................................................................
0  1     -.04    -.00     .00     .00     .00     .00     .00     .00     .00     .00
0  2     -.04    -.00     .00     .00     .00     .00     .00     .00     .00     .00
0  3     -.04    -.00     .00     .00     .00     .00     .00     .00     .00     .00
0  4     -.04    -.00     .00     .00     .00     .00     .00     .00     .00     .00
0  5     -.04    -.00     .00     .00     .00     .00     .00     .00     .00     .00
0  6     -.04    -.00     .00     .00     .00     .00     .00     .00     .00     .00
0  7     -.04    -.00     .00     .00     .00     .00     .00     .00     .00     .00
0  8     -.04    -.00     .00     .00     .00     .00     .00     .00     .00     .00
0  9     -.04    -.00     .00     .00     .00     .00     .00     .00     .00     .00
0 10     -.04    -.00     .00     .00     .00     .00     .00     .00     .00     .00
0 11     -.04    -.00     .00     .00     .00     .00     .00     .00     .00     .00
0 12     -.03    -.00     .00     .00     .00     .00     .00     .00     .00     .00
0 13     -.02    -.00     .00     .00     .00     .00     .00     .00     .00     .00
0 14     -.02    -.00     .00     .00     .00     .00     .00     .00     .00     .00
0 15     -.01     .00     .00     .00     .00     .00     .00     .00     .00     .00
0 16     -.00     .00     .00     .00     .00     .00     .00     .00     .00     .00
0 17      .00     .00     .00     .00     .00     .00     .00     .00     .00     .00
0 18      .00     .00     .00     .00     .00     .00     .00     .00     .00     .00
0 19      .00     .00     .00     .00     .00     .00     .00     .00     .00     .00
0 20      .00     .00     .00     .00     .00     .00     .00     .00     .00     .00
0 21      .00     .00     .00     .00     .00     .00     .00     .00     .00     .00
0 22      .00     .00     .00     .00     .00     .00     .00     .00     .00     .00
0 23      .00     .00     .00     .00     .00     .00     .00     .00     .00     .00
0 24      .00     .00     .00     .00     .00     .00     .00     .00     .00     .00
0 25      .00     .00     .00     .00     .00     .00     .00     .00     .00     .00
0


                              VOLUMETRIC BUDGET FOR ENTIRE MODEL AT END OF TIME STEP 14 IN STRESS PERIOD  1
                              -----------------------------------------------------------------------------
0                   CUMULATIVE VOLUMES      L**3                                     RATES FOR THIS TIME STEP      L**3/T
                    ------------------                                               ------------------------

                          IN:                                                                    IN:
                          ---                                                                    ---
                            STORAGE =    4808.0                                                    STORAGE =    1.5707    
                      CONSTANT HEAD =    .22376E-02                                          CONSTANT HEAD =    .22450E-05
                              WELLS =    .00000                                                      WELLS =    .00000    
0                          TOTAL IN =    4808.0                                                   TOTAL IN =    1.5707    
0                        OUT:                                                                   OUT:
                         ----                                                                   ----
                            STORAGE =    .00000                                                    STORAGE =    .00000    
                      CONSTANT HEAD =    .00000                                              CONSTANT HEAD =    .00000    
                              WELLS =    4808.3                                                      WELLS =    1.5707    
0                         TOTAL OUT =    4808.3                                                  TOTAL OUT =    1.5707    
0                          IN - OUT =   -.22998                                                   IN - OUT =   -.64492E-04
0               PERCENT DISCREPANCY =                -.00                              PERCENT DISCREPANCY =                -.00



0


          TIME SUMMARY AT END OF TIME STEP 14 IN STRESS PERIOD  1
                               SECONDS        MINUTES         HOURS          DAYS           YEARS
                           ---------------------------------------------------------------------------
      TIME STEP LENGTH         903.326        15.0554        .250924        .104552E-01    .286247E-04
    STRESS PERIOD TIME         3061.12        51.0187        .850311        .354296E-01    .970010E-04
 TOTAL SIMULATION TIME         3061.12        51.0187        .850311        .354296E-01    .970010E-04
1
    16 ITERATIONS FOR TIME STEP  15 IN STRESS PERIOD  1
0MAXIMUM HEAD CHANGE FOR EACH ITERATION:
0 HEAD CHANGE LAYER,ROW,COL HEAD CHANGE LAYER,ROW,COL HEAD CHANGE LAYER,ROW,COL HEAD CHANGE LAYER,ROW,COL HEAD CHANGE LAYER,ROW,COL
 ------------------------------------------------------------------------------------------------------------------------------------
   -3.667     (  7,  5,  5)  -2.410     (  6,  2,  2)  -1.191     (  9,  1,  1)  -.5620     ( 10,  1,  1)  -.6413     ( 10,  6,  1)
    .3687E-01 ( 10, 11,  1)   .6844E-01 (  9, 12,  1)   .4553E-01 ( 10, 10,  1)  -.5587E-01 ( 10,  4,  4)   .2161E-01 ( 10,  6,  5)
   -.2263E-02 (  8,  5,  6)  -.2442E-02 ( 10,  2,  3)  -.1125E-01 ( 10,  1,  1)   .2417E-02 ( 10,  6,  5)   .1640E-02 ( 10,  1,  1)
    .2449E-03 ( 10, 12,  1)
0
0HEAD/DRAWDOWN PRINTOUT FLAG = 1     TOTAL BUDGET PRINTOUT FLAG = 1     CELL-BY-CELL FLOW TERM FLAG = 0
 REUSING PREVIOUS VALUES OF IOFLG
1                      HEAD IN LAYER  9 AT END OF TIME STEP 15 IN STRESS PERIOD  1
           -----------------------------------------------------------------------

           1       2       3       4       5       6       7       8       9      10      11      12      13      14      15
 ................................................................................................................................
0  1  -111.03  -91.47  -77.93  -67.10  -56.79  -46.80  -37.51  -28.92  -21.29  -15.74  -11.22   -7.31   -4.03   -1.71    -.48
0  2   -91.47  -84.93  -75.82  -66.37  -56.54  -46.71  -37.48  -28.90  -21.28  -15.74  -11.22   -7.31   -4.03   -1.71    -.48
0  3   -77.93  -75.82  -71.04  -64.23  -55.69  -46.39  -37.35  -28.85  -21.26  -15.73  -11.21   -7.30   -4.03   -1.71    -.48
0  4   -67.10  -66.37  -64.23  -60.20  -53.79  -45.61  -37.05  -28.73  -21.21  -15.71  -11.20   -7.30   -4.03   -1.71    -.48
0  5   -56.79  -56.54  -55.69  -53.79  -49.97  -43.79  -36.26  -28.41  -21.08  -15.64  -11.17   -7.28   -4.02   -1.71    -.48
0  6   -46.80  -46.71  -46.39  -45.61  -43.79  -40.07  -34.42  -27.59  -20.73  -15.47  -11.08   -7.24   -4.01   -1.70    -.48
0  7   -37.51  -37.48  -37.35  -37.05  -36.26  -34.42  -30.93  -25.81  -19.91  -15.05  -10.88   -7.15   -3.97   -1.69    -.47
0  8   -28.92  -28.90  -28.85  -28.73  -28.41  -27.59  -25.81  -22.63  -18.24  -14.15  -10.41   -6.92   -3.88   -1.66    -.47
0  9   -21.29  -21.28  -21.26  -21.21  -21.08  -20.73  -19.91  -18.24  -15.49  -12.50   -9.49   -6.46   -3.69   -1.60    -.46
0 10   -15.74  -15.74  -15.73  -15.71  -15.64  -15.47  -15.05  -14.15  -12.50  -10.47   -8.23   -5.78   -3.39   -1.50    -.43
0 11   -11.22  -11.22  -11.21  -11.20  -11.17  -11.08  -10.88  -10.41   -9.49   -8.23   -6.71   -4.90   -2.98   -1.36    -.40
0 12    -7.31   -7.31   -7.30   -7.30   -7.28   -7.24   -7.15   -6.92   -6.46   -5.78   -4.90   -3.74   -2.39   -1.15    -.35
0 13    -4.03   -4.03   -4.03   -4.03   -4.02   -4.01   -3.97   -3.88   -3.69   -3.39   -2.98   -2.39   -1.63    -.84    -.27
0 14    -1.71   -1.71   -1.71   -1.71   -1.71   -1.70   -1.69   -1.66   -1.60   -1.50   -1.36   -1.15    -.84    -.47    -.17
0 15     -.48    -.48    -.48    -.48    -.48    -.48    -.47    -.47    -.46    -.43    -.40    -.35    -.27    -.17    -.07
0 16     -.09    -.09    -.09    -.09    -.09    -.09    -.08    -.08    -.08    -.08    -.07    -.07    -.05    -.04    -.02
0 17     -.01    -.01    -.01    -.01    -.01    -.01    -.01    -.01    -.01    -.01    -.01    -.01    -.01    -.00    -.00
0 18     -.00    -.00    -.00    -.00    -.00    -.00    -.00    -.00    -.00     .00     .00     .00     .00     .00     .00
0 19      .00     .00     .00     .00     .00     .00     .00     .00     .00     .00     .00     .00     .00     .00     .00
0 20      .00     .00     .00     .00     .00     .00     .00     .00     .00     .00     .00     .00     .00     .00     .00
0 21      .00     .00     .00     .00     .00     .00     .00     .00     .00     .00     .00     .00     .00     .00     .00
0 22      .00     .00     .00     .00     .00     .00     .00     .00     .00     .00     .00     .00     .00     .00     .00
0 23      .00     .00     .00     .00     .00     .00     .00     .00     .00     .00     .00     .00     .00     .00     .00
0 24      .00     .00     .00     .00     .00     .00     .00     .00     .00     .00     .00     .00     .00     .00     .00
0 25      .00     .00     .00     .00     .00     .00     .00     .00     .00     .00     .00     .00     .00     .00     .00
1                      HEAD IN LAYER  9 AT END OF TIME STEP 15 IN STRESS PERIOD  1
           -----------------------------------------------------------------------

          16      17      18      19      20      21      22      23      24      25
 ........................................................................................
0  1     -.09    -.01    -.00     .00     .00     .00     .00     .00     .00     .00
0  2     -.09    -.01    -.00     .00     .00     .00     .00     .00     .00     .00
0  3     -.09    -.01    -.00     .00     .00     .00     .00     .00     .00     .00
0  4     -.09    -.01    -.00     .00     .00     .00     .00     .00     .00     .00
0  5     -.09    -.01    -.00     .00     .00     .00     .00     .00     .00     .00
0  6     -.09    -.01    -.00     .00     .00     .00     .00     .00     .00     .00
0  7     -.08    -.01    -.00     .00     .00     .00     .00     .00     .00     .00
0  8     -.08    -.01    -.00     .00     .00     .00     .00     .00     .00     .00
0  9     -.08    -.01    -.00     .00     .00     .00     .00     .00     .00     .00
0 10     -.08    -.01     .00     .00     .00     .00     .00     .00     .00     .00
0 11     -.07    -.01     .00     .00     .00     .00     .00     .00     .00     .00
0 12     -.07    -.01     .00     .00     .00     .00     .00     .00     .00     .00
0 13     -.05    -.01     .00     .00     .00     .00     .00     .00     .00     .00
0 14     -.04    -.00     .00     .00     .00     .00     .00     .00     .00     .00
0 15     -.02    -.00     .00     .00     .00     .00     .00     .00     .00     .00
0 16     -.00     .00     .00     .00     .00     .00     .00     .00     .00     .00
0 17      .00     .00     .00     .00     .00     .00     .00     .00     .00     .00
0 18      .00     .00     .00     .00     .00     .00     .00     .00     .00     .00
0 19      .00     .00     .00     .00     .00     .00     .00     .00     .00     .00
0 20      .00     .00     .00     .00     .00     .00     .00     .00     .00     .00
0 21      .00     .00     .00     .00     .00     .00     .00     .00     .00     .00
0 22      .00     .00     .00     .00     .00     .00     .00     .00     .00     .00
0 23      .00     .00     .00     .00     .00     .00     .00     .00     .00     .00
0 24      .00     .00     .00     .00     .00     .00     .00     .00     .00     .00
0 25      .00     .00     .00     .00     .00     .00     .00     .00     .00     .00
1                      HEAD IN LAYER 10 AT END OF TIME STEP 15 IN STRESS PERIOD  1
           -----------------------------------------------------------------------

           1       2       3       4       5       6       7       8       9      10      11      12      13      14      15
 ................................................................................................................................
0  1  -113.35  -93.71  -80.05  -69.07  -58.56  -48.33  -38.79  -29.95  -22.09  -16.36  -11.69   -7.63   -4.22   -1.80    -.51
0  2   -93.71  -87.13  -77.92  -68.33  -58.30  -48.24  -38.76  -29.93  -22.08  -16.36  -11.68   -7.63   -4.22   -1.80    -.51
0  3   -80.05  -77.92  -73.07  -66.15  -57.44  -47.91  -38.63  -29.88  -22.06  -16.35  -11.68   -7.63   -4.22   -1.80    -.51
0  4   -69.07  -68.33  -66.15  -62.05  -55.50  -47.11  -38.31  -29.76  -22.01  -16.32  -11.67   -7.62   -4.22   -1.80    -.51
0  5   -58.56  -58.30  -57.44  -55.50  -51.58  -45.24  -37.51  -29.43  -21.87  -16.26  -11.64   -7.61   -4.21   -1.80    -.51
0  6   -48.33  -48.24  -47.91  -47.11  -45.24  -41.43  -35.61  -28.58  -21.51  -16.08  -11.55   -7.57   -4.20   -1.79    -.50
0  7   -38.79  -38.76  -38.63  -38.31  -37.51  -35.61  -32.02  -26.74  -20.66  -15.65  -11.33   -7.47   -4.16   -1.78    -.50
0  8   -29.95  -29.93  -29.88  -29.76  -29.43  -28.58  -26.74  -23.47  -18.94  -14.72  -10.85   -7.23   -4.06   -1.75    -.50
0  9   -22.09  -22.08  -22.06  -22.01  -21.87  -21.51  -20.66  -18.94  -16.10  -13.02   -9.89   -6.76   -3.87   -1.69    -.48
0 10   -16.36  -16.36  -16.35  -16.32  -16.26  -16.08  -15.65  -14.72  -13.02  -10.91   -8.59   -6.05   -3.56   -1.58    -.46
0 11   -11.69  -11.68  -11.68  -11.67  -11.64  -11.55  -11.33  -10.85   -9.89   -8.59   -7.01   -5.13   -3.13   -1.44    -.43
0 12    -7.63   -7.63   -7.63   -7.62   -7.61   -7.57   -7.47   -7.23   -6.76   -6.05   -5.13   -3.92   -2.51   -1.21    -.37
0 13    -4.22   -4.22   -4.22   -4.22   -4.22   -4.20   -4.16   -4.06   -3.87   -3.56   -3.13   -2.51   -1.71    -.88    -.29
0 14    -1.80   -1.80   -1.80   -1.80   -1.80   -1.79   -1.78   -1.75   -1.69   -1.58   -1.44   -1.21    -.88    -.50    -.18
0 15     -.51    -.51    -.51    -.51    -.51    -.50    -.50    -.50    -.48    -.46    -.43    -.37    -.29    -.18    -.07
0 16     -.09    -.09    -.09    -.09    -.09    -.09    -.09    -.09    -.09    -.08    -.08    -.07    -.06    -.04    -.02
0 17     -.01    -.01    -.01    -.01    -.01    -.01    -.01    -.01    -.01    -.01    -.01    -.01    -.01    -.01    -.00
0 18     -.00    -.00    -.00    -.00    -.00    -.00    -.00    -.00    -.00    -.00    -.00     .00     .00     .00     .00
0 19      .00     .00     .00     .00     .00     .00     .00     .00     .00     .00     .00     .00     .00     .00     .00
0 20      .00     .00     .00     .00     .00     .00     .00     .00     .00     .00     .00     .00     .00     .00     .00
0 21      .00     .00     .00     .00     .00     .00     .00     .00     .00     .00     .00     .00     .00     .00     .00
0 22      .00     .00     .00     .00     .00     .00     .00     .00     .00     .00     .00     .00     .00     .00     .00
0 23      .00     .00     .00     .00     .00     .00     .00     .00     .00     .00     .00     .00     .00     .00     .00
0 24      .00     .00     .00     .00     .00     .00     .00     .00     .00     .00     .00     .00     .00     .00     .00
0 25      .00     .00     .00     .00     .00     .00     .00     .00     .00     .00     .00     .00     .00     .00     .00
1                      HEAD IN LAYER 10 AT END OF TIME STEP 15 IN STRESS PERIOD  1
           -----------------------------------------------------------------------

          16      17      18      19      20      21      22      23      24      25
 ........................................................................................
0  1     -.09    -.01    -.00     .00     .00     .00     .00     .00     .00     .00
0  2     -.09    -.01    -.00     .00     .00     .00     .00     .00     .00     .00
0  3     -.09    -.01    -.00     .00     .00     .00     .00     .00     .00     .00
0  4     -.09    -.01    -.00     .00     .00     .00     .00     .00     .00     .00
0  5     -.09    -.01    -.00     .00     .00     .00     .00     .00     .00     .00
0  6     -.09    -.01    -.00     .00     .00     .00     .00     .00     .00     .00
0  7     -.09    -.01    -.00     .00     .00     .00     .00     .00     .00     .00
0  8     -.09    -.01    -.00     .00     .00     .00     .00     .00     .00     .00
0  9     -.09    -.01    -.00     .00     .00     .00     .00     .00     .00     .00
0 10     -.08    -.01    -.00     .00     .00     .00     .00     .00     .00     .00
0 11     -.08    -.01    -.00     .00     .00     .00     .00     .00     .00     .00
0 12     -.07    -.01     .00     .00     .00     .00     .00     .00     .00     .00
0 13     -.06    -.01     .00     .00     .00     .00     .00     .00     .00     .00
0 14     -.04    -.01     .00     .00     .00     .00     .00     .00     .00     .00
0 15     -.02    -.00     .00     .00     .00     .00     .00     .00     .00     .00
0 16     -.01     .00     .00     .00     .00     .00     .00     .00     .00     .00
0 17      .00     .00     .00     .00     .00     .00     .00     .00     .00     .00
0 18      .00     .00     .00     .00     .00     .00     .00     .00     .00     .00
0 19      .00     .00     .00     .00     .00     .00     .00     .00     .00     .00
0 20      .00     .00     .00     .00     .00     .00     .00     .00     .00     .00
0 21      .00     .00     .00     .00     .00     .00     .00     .00     .00     .00
0 22      .00     .00     .00     .00     .00     .00     .00     .00     .00     .00
0 23      .00     .00     .00     .00     .00     .00     .00     .00     .00     .00
0 24      .00     .00     .00     .00     .00     .00     .00     .00     .00     .00
0 25      .00     .00     .00     .00     .00     .00     .00     .00     .00     .00
0


                              VOLUMETRIC BUDGET FOR ENTIRE MODEL AT END OF TIME STEP 15 IN STRESS PERIOD  1
                              -----------------------------------------------------------------------------
0                   CUMULATIVE VOLUMES      L**3                                     RATES FOR THIS TIME STEP      L**3/T
                    ------------------                                               ------------------------

                          IN:                                                                    IN:
                          ---                                                                    ---
                            STORAGE =    6814.3                                                    STORAGE =    1.5707    
                      CONSTANT HEAD =    .20961E-01                                          CONSTANT HEAD =    .14659E-04
                              WELLS =    .00000                                                      WELLS =    .00000    
0                          TOTAL IN =    6814.3                                                   TOTAL IN =    1.5707    
0                        OUT:                                                                   OUT:
                         ----                                                                   ----
                            STORAGE =    .00000                                                    STORAGE =    .00000    
                      CONSTANT HEAD =    .00000                                              CONSTANT HEAD =    .00000    
                              WELLS =    6814.6                                                      WELLS =    1.5707    
0                         TOTAL OUT =    6814.6                                                  TOTAL OUT =    1.5707    
0                          IN - OUT =   -.28662                                                   IN - OUT =   -.44227E-04
0               PERCENT DISCREPANCY =                -.00                              PERCENT DISCREPANCY =                -.00



0


          TIME SUMMARY AT END OF TIME STEP 15 IN STRESS PERIOD  1
                               SECONDS        MINUTES         HOURS          DAYS           YEARS
                           ---------------------------------------------------------------------------
      TIME STEP LENGTH         1277.30        21.2884        .354807        .147836E-01    .404753E-04
    STRESS PERIOD TIME         4338.42        72.3070        1.20512        .502132E-01    .137476E-03
 TOTAL SIMULATION TIME         4338.42        72.3070        1.20512        .502132E-01    .137476E-03
1
    16 ITERATIONS FOR TIME STEP  16 IN STRESS PERIOD  1
0MAXIMUM HEAD CHANGE FOR EACH ITERATION:
0 HEAD CHANGE LAYER,ROW,COL HEAD CHANGE LAYER,ROW,COL HEAD CHANGE LAYER,ROW,COL HEAD CHANGE LAYER,ROW,COL HEAD CHANGE LAYER,ROW,COL
 ------------------------------------------------------------------------------------------------------------------------------------
   -3.601     (  6,  5,  5)  -2.672     (  6,  2,  2)  -1.079     (  7,  1,  1)  -.5800     ( 10,  1,  1)  -.7112     ( 10,  6,  1)
    .3671E-01 ( 10, 12,  1)   .7353E-01 (  9, 12,  1)   .5261E-01 ( 10, 10,  1)  -.3307E-01 ( 10,  4,  4)   .1821E-01 ( 10,  5,  6)
   -.1988E-02 (  7,  5,  7)  -.2281E-02 ( 10,  2,  3)  -.1069E-01 ( 10,  1,  1)   .2455E-02 ( 10,  6,  5)   .1719E-02 ( 10,  1,  1)
    .2580E-03 ( 10, 12,  1)
0
0HEAD/DRAWDOWN PRINTOUT FLAG = 1     TOTAL BUDGET PRINTOUT FLAG = 1     CELL-BY-CELL FLOW TERM FLAG = 0
 REUSING PREVIOUS VALUES OF IOFLG
1                      HEAD IN LAYER  9 AT END OF TIME STEP 16 IN STRESS PERIOD  1
           -----------------------------------------------------------------------

           1       2       3       4       5       6       7       8       9      10      11      12      13      14      15
 ................................................................................................................................
0  1  -113.48  -93.91  -80.37  -69.53  -59.21  -49.19  -39.84  -31.16  -23.40  -17.70  -12.98   -8.80   -5.16   -2.41    -.78
0  2   -93.91  -87.38  -78.26  -68.81  -58.96  -49.09  -39.81  -31.15  -23.40  -17.69  -12.98   -8.80   -5.16   -2.41    -.78
0  3   -80.37  -78.26  -73.47  -66.66  -58.11  -48.77  -39.68  -31.10  -23.38  -17.68  -12.97   -8.79   -5.16   -2.41    -.78
0  4   -69.53  -68.81  -66.66  -62.63  -56.21  -47.99  -39.37  -30.97  -23.32  -17.66  -12.96   -8.79   -5.16   -2.41    -.78
0  5   -59.21  -58.96  -58.11  -56.21  -52.37  -46.16  -38.59  -30.65  -23.19  -17.59  -12.93   -8.77   -5.15   -2.41    -.78
0  6   -49.19  -49.09  -48.77  -47.99  -46.16  -42.42  -36.72  -29.82  -22.83  -17.42  -12.84   -8.73   -5.13   -2.40    -.78
0  7   -39.84  -39.81  -39.68  -39.37  -38.59  -36.72  -33.20  -28.01  -21.99  -16.98  -12.62   -8.62   -5.09   -2.39    -.78
0  8   -31.16  -31.15  -31.10  -30.97  -30.65  -29.82  -28.01  -24.77  -20.27  -16.05  -12.12   -8.38   -4.99   -2.36    -.77
0  9   -23.40  -23.40  -23.38  -23.32  -23.19  -22.83  -21.99  -20.27  -17.44  -14.33  -11.14   -7.88   -4.77   -2.28    -.75
0 10   -17.70  -17.69  -17.68  -17.66  -17.59  -17.42  -16.98  -16.05  -14.33  -12.19   -9.79   -7.13   -4.43   -2.16    -.72
0 11   -12.98  -12.98  -12.97  -12.96  -12.93  -12.84  -12.62  -12.12  -11.14   -9.79   -8.15   -6.14   -3.95   -1.98    -.67
0 12    -8.80   -8.80   -8.79   -8.79   -8.77   -8.73   -8.62   -8.38   -7.88   -7.13   -6.14   -4.83   -3.25   -1.70    -.60
0 13    -5.16   -5.16   -5.16   -5.16   -5.15   -5.13   -5.09   -4.99   -4.77   -4.43   -3.95   -3.25   -2.31   -1.29    -.48
0 14    -2.41   -2.41   -2.41   -2.41   -2.41   -2.40   -2.39   -2.36   -2.28   -2.16   -1.98   -1.70   -1.29    -.78    -.32
0 15     -.78    -.78    -.78    -.78    -.78    -.78    -.78    -.77    -.75    -.72    -.67    -.60    -.48    -.32    -.15
0 16     -.17    -.17    -.17    -.17    -.17    -.17    -.17    -.17    -.16    -.16    -.15    -.14    -.12    -.08    -.04
0 17     -.02    -.02    -.02    -.02    -.02    -.02    -.02    -.02    -.02    -.02    -.02    -.02    -.02    -.01    -.01
0 18     -.00    -.00    -.00    -.00    -.00    -.00    -.00    -.00    -.00    -.00    -.00    -.00    -.00    -.00    -.00
0 19      .00     .00     .00     .00     .00     .00     .00     .00     .00     .00     .00     .00     .00     .00     .00
0 20      .00     .00     .00     .00     .00     .00     .00     .00     .00     .00     .00     .00     .00     .00     .00
0 21      .00     .00     .00     .00     .00     .00     .00     .00     .00     .00     .00     .00     .00     .00     .00
0 22      .00     .00     .00     .00     .00     .00     .00     .00     .00     .00     .00     .00     .00     .00     .00
0 23      .00     .00     .00     .00     .00     .00     .00     .00     .00     .00     .00     .00     .00     .00     .00
0 24      .00     .00     .00     .00     .00     .00     .00     .00     .00     .00     .00     .00     .00     .00     .00
0 25      .00     .00     .00     .00     .00     .00     .00     .00     .00     .00     .00     .00     .00     .00     .00
1                      HEAD IN LAYER  9 AT END OF TIME STEP 16 IN STRESS PERIOD  1
           -----------------------------------------------------------------------

          16      17      18      19      20      21      22      23      24      25
 ........................................................................................
0  1     -.17    -.02    -.00     .00     .00     .00     .00     .00     .00     .00
0  2     -.17    -.02    -.00     .00     .00     .00     .00     .00     .00     .00
0  3     -.17    -.02    -.00     .00     .00     .00     .00     .00     .00     .00
0  4     -.17    -.02    -.00     .00     .00     .00     .00     .00     .00     .00
0  5     -.17    -.02    -.00     .00     .00     .00     .00     .00     .00     .00
0  6     -.17    -.02    -.00     .00     .00     .00     .00     .00     .00     .00
0  7     -.17    -.02    -.00     .00     .00     .00     .00     .00     .00     .00
0  8     -.17    -.02    -.00     .00     .00     .00     .00     .00     .00     .00
0  9     -.16    -.02    -.00     .00     .00     .00     .00     .00     .00     .00
0 10     -.16    -.02    -.00     .00     .00     .00     .00     .00     .00     .00
0 11     -.15    -.02    -.00     .00     .00     .00     .00     .00     .00     .00
0 12     -.14    -.02    -.00     .00     .00     .00     .00     .00     .00     .00
0 13     -.12    -.02    -.00     .00     .00     .00     .00     .00     .00     .00
0 14     -.08    -.01    -.00     .00     .00     .00     .00     .00     .00     .00
0 15     -.04    -.01    -.00     .00     .00     .00     .00     .00     .00     .00
0 16     -.01    -.00     .00     .00     .00     .00     .00     .00     .00     .00
0 17     -.00     .00     .00     .00     .00     .00     .00     .00     .00     .00
0 18      .00     .00     .00     .00     .00     .00     .00     .00     .00     .00
0 19      .00     .00     .00     .00     .00     .00     .00     .00     .00     .00
0 20      .00     .00     .00     .00     .00     .00     .00     .00     .00     .00
0 21      .00     .00     .00     .00     .00     .00     .00     .00     .00     .00
0 22      .00     .00     .00     .00     .00     .00     .00     .00     .00     .00
0 23      .00     .00     .00     .00     .00     .00     .00     .00     .00     .00
0 24      .00     .00     .00     .00     .00     .00     .00     .00     .00     .00
0 25      .00     .00     .00     .00     .00     .00     .00     .00     .00     .00
1                      HEAD IN LAYER 10 AT END OF TIME STEP 16 IN STRESS PERIOD  1
           -----------------------------------------------------------------------

           1       2       3       4       5       6       7       8       9      10      11      12      13      14      15
 ................................................................................................................................
0  1  -115.56  -95.93  -82.27  -71.28  -60.77  -50.53  -40.97  -32.07  -24.12  -18.27  -13.42   -9.11   -5.36   -2.52    -.82
0  2   -95.93  -89.35  -80.14  -70.54  -60.51  -50.43  -40.93  -32.06  -24.12  -18.26  -13.42   -9.11   -5.36   -2.52    -.82
0  3   -82.27  -80.14  -75.28  -68.36  -59.64  -50.11  -40.81  -32.01  -24.09  -18.25  -13.41   -9.11   -5.36   -2.52    -.82
0  4   -71.28  -70.54  -68.36  -64.26  -57.70  -49.31  -40.49  -31.88  -24.04  -18.23  -13.40   -9.10   -5.36   -2.52    -.82
0  5   -60.77  -60.51  -59.64  -57.70  -53.78  -47.44  -39.68  -31.55  -23.90  -18.16  -13.36   -9.09   -5.35   -2.51    -.82
0  6   -50.53  -50.43  -50.11  -49.31  -47.44  -43.61  -37.77  -30.70  -23.54  -17.98  -13.27   -9.04   -5.33   -2.51    -.82
0  7   -40.97  -40.93  -40.81  -40.49  -39.68  -37.77  -34.17  -28.84  -22.67  -17.53  -13.05   -8.94   -5.29   -2.49    -.81
0  8   -32.07  -32.06  -32.01  -31.88  -31.55  -30.70  -28.84  -25.52  -20.91  -16.57  -12.53   -8.68   -5.18   -2.46    -.80
0  9   -24.12  -24.12  -24.09  -24.04  -23.90  -23.54  -22.67  -20.91  -18.01  -14.81  -11.53   -8.17   -4.96   -2.38    -.79
0 10   -18.27  -18.26  -18.25  -18.23  -18.16  -17.98  -17.53  -16.57  -14.81  -12.61  -10.14   -7.39   -4.60   -2.25    -.75
0 11   -13.42  -13.42  -13.41  -13.40  -13.36  -13.27  -13.05  -12.53  -11.53  -10.14   -8.44   -6.38   -4.10   -2.06    -.71
0 12    -9.11   -9.11   -9.11   -9.10   -9.09   -9.04   -8.94   -8.68   -8.17   -7.39   -6.38   -5.02   -3.38   -1.77    -.63
0 13    -5.36   -5.36   -5.36   -5.36   -5.35   -5.33   -5.29   -5.18   -4.96   -4.60   -4.10   -3.38   -2.41   -1.35    -.51
0 14    -2.52   -2.52   -2.52   -2.52   -2.51   -2.51   -2.49   -2.46   -2.38   -2.25   -2.06   -1.77   -1.35    -.82    -.34
0 15     -.82    -.82    -.82    -.82    -.82    -.82    -.81    -.80    -.79    -.75    -.71    -.63    -.51    -.34    -.15
0 16     -.18    -.18    -.18    -.18    -.18    -.18    -.18    -.17    -.17    -.17    -.16    -.14    -.12    -.09    -.04
0 17     -.03    -.03    -.03    -.03    -.03    -.03    -.03    -.03    -.03    -.02    -.02    -.02    -.02    -.01    -.01
0 18     -.00    -.00    -.00    -.00    -.00    -.00    -.00    -.00    -.00    -.00    -.00    -.00    -.00    -.00    -.00
0 19      .00     .00     .00     .00     .00     .00     .00     .00     .00     .00     .00     .00     .00     .00     .00
0 20      .00     .00     .00     .00     .00     .00     .00     .00     .00     .00     .00     .00     .00     .00     .00
0 21      .00     .00     .00     .00     .00     .00     .00     .00     .00     .00     .00     .00     .00     .00     .00
0 22      .00     .00     .00     .00     .00     .00     .00     .00     .00     .00     .00     .00     .00     .00     .00
0 23      .00     .00     .00     .00     .00     .00     .00     .00     .00     .00     .00     .00     .00     .00     .00
0 24      .00     .00     .00     .00     .00     .00     .00     .00     .00     .00     .00     .00     .00     .00     .00
0 25      .00     .00     .00     .00     .00     .00     .00     .00     .00     .00     .00     .00     .00     .00     .00
1                      HEAD IN LAYER 10 AT END OF TIME STEP 16 IN STRESS PERIOD  1
           -----------------------------------------------------------------------

          16      17      18      19      20      21      22      23      24      25
 ........................................................................................
0  1     -.18    -.03    -.00     .00     .00     .00     .00     .00     .00     .00
0  2     -.18    -.03    -.00     .00     .00     .00     .00     .00     .00     .00
0  3     -.18    -.03    -.00     .00     .00     .00     .00     .00     .00     .00
0  4     -.18    -.03    -.00     .00     .00     .00     .00     .00     .00     .00
0  5     -.18    -.03    -.00     .00     .00     .00     .00     .00     .00     .00
0  6     -.18    -.03    -.00     .00     .00     .00     .00     .00     .00     .00
0  7     -.18    -.03    -.00     .00     .00     .00     .00     .00     .00     .00
0  8     -.17    -.03    -.00     .00     .00     .00     .00     .00     .00     .00
0  9     -.17    -.03    -.00     .00     .00     .00     .00     .00     .00     .00
0 10     -.17    -.02    -.00     .00     .00     .00     .00     .00     .00     .00
0 11     -.16    -.02    -.00     .00     .00     .00     .00     .00     .00     .00
0 12     -.14    -.02    -.00     .00     .00     .00     .00     .00     .00     .00
0 13     -.12    -.02    -.00     .00     .00     .00     .00     .00     .00     .00
0 14     -.09    -.01    -.00     .00     .00     .00     .00     .00     .00     .00
0 15     -.04    -.01    -.00     .00     .00     .00     .00     .00     .00     .00
0 16     -.01    -.00     .00     .00     .00     .00     .00     .00     .00     .00
0 17     -.00     .00     .00     .00     .00     .00     .00     .00     .00     .00
0 18      .00     .00     .00     .00     .00     .00     .00     .00     .00     .00
0 19      .00     .00     .00     .00     .00     .00     .00     .00     .00     .00
0 20      .00     .00     .00     .00     .00     .00     .00     .00     .00     .00
0 21      .00     .00     .00     .00     .00     .00     .00     .00     .00     .00
0 22      .00     .00     .00     .00     .00     .00     .00     .00     .00     .00
0 23      .00     .00     .00     .00     .00     .00     .00     .00     .00     .00
0 24      .00     .00     .00     .00     .00     .00     .00     .00     .00     .00
0 25      .00     .00     .00     .00     .00     .00     .00     .00     .00     .00
0


                              VOLUMETRIC BUDGET FOR ENTIRE MODEL AT END OF TIME STEP 16 IN STRESS PERIOD  1
                              -----------------------------------------------------------------------------
0                   CUMULATIVE VOLUMES      L**3                                     RATES FOR THIS TIME STEP      L**3/T
                    ------------------                                               ------------------------

                          IN:                                                                    IN:
                          ---                                                                    ---
                            STORAGE =    9651.0                                                    STORAGE =    1.5706    
                      CONSTANT HEAD =    .17113                                              CONSTANT HEAD =    .83144E-04
                              WELLS =    .00000                                                      WELLS =    .00000    
0                          TOTAL IN =    9651.2                                                   TOTAL IN =    1.5707    
0                        OUT:                                                                   OUT:
                         ----                                                                   ----
                            STORAGE =    .00000                                                    STORAGE =    .00000    
                      CONSTANT HEAD =    .00000                                              CONSTANT HEAD =    .00000    
                              WELLS =    9651.5                                                      WELLS =    1.5707    
0                         TOTAL OUT =    9651.5                                                  TOTAL OUT =    1.5707    
0                          IN - OUT =   -.33887                                                   IN - OUT =   -.29206E-04
0               PERCENT DISCREPANCY =                -.00                              PERCENT DISCREPANCY =                -.00



0


          TIME SUMMARY AT END OF TIME STEP 16 IN STRESS PERIOD  1
                               SECONDS        MINUTES         HOURS          DAYS           YEARS
                           ---------------------------------------------------------------------------
      TIME STEP LENGTH         1806.11        30.1018        .501696        .209040E-01    .572321E-04
    STRESS PERIOD TIME         6144.53        102.409        1.70681        .711173E-01    .194708E-03
 TOTAL SIMULATION TIME         6144.53        102.409        1.70681        .711173E-01    .194708E-03
1
    16 ITERATIONS FOR TIME STEP  17 IN STRESS PERIOD  1
0MAXIMUM HEAD CHANGE FOR EACH ITERATION:
0 HEAD CHANGE LAYER,ROW,COL HEAD CHANGE LAYER,ROW,COL HEAD CHANGE LAYER,ROW,COL HEAD CHANGE LAYER,ROW,COL HEAD CHANGE LAYER,ROW,COL
 ------------------------------------------------------------------------------------------------------------------------------------
   -3.425     (  6,  6,  6)  -2.707     (  6,  2,  2)  -1.326     (  6,  1,  1)  -.5910     ( 10,  1,  1)  -.7786     ( 10,  6,  1)
    .3640E-01 ( 10, 12,  1)   .7649E-01 (  9, 12,  1)   .5862E-01 ( 10, 10,  1)   .3410E-01 (  9, 12,  1)   .1491E-01 ( 10,  5,  6)
    .1672E-02 (  6, 12,  1)  -.2109E-02 ( 10,  2,  3)  -.9832E-02 ( 10,  1,  1)   .2566E-02 ( 10,  6,  5)   .2114E-02 ( 10,  1,  1)
    .2525E-03 ( 10, 12,  1)
0
0HEAD/DRAWDOWN PRINTOUT FLAG = 1     TOTAL BUDGET PRINTOUT FLAG = 1     CELL-BY-CELL FLOW TERM FLAG = 0
 REUSING PREVIOUS VALUES OF IOFLG
1                      HEAD IN LAYER  9 AT END OF TIME STEP 17 IN STRESS PERIOD  1
           -----------------------------------------------------------------------

           1       2       3       4       5       6       7       8       9      10      11      12      13      14      15
 ................................................................................................................................
0  1  -115.83  -96.26  -82.71  -71.87  -61.54  -51.49  -42.10  -33.35  -25.48  -19.64  -14.76  -10.34   -6.39   -3.24   -1.19
0  2   -96.26  -89.72  -80.61  -71.15  -61.29  -51.40  -42.07  -33.33  -25.48  -19.64  -14.75  -10.34   -6.39   -3.24   -1.19
0  3   -82.71  -80.61  -75.82  -69.00  -60.44  -51.08  -41.94  -33.28  -25.46  -19.63  -14.75  -10.34   -6.39   -3.24   -1.19
0  4   -71.87  -71.15  -69.00  -64.97  -58.53  -50.30  -41.63  -33.16  -25.40  -19.60  -14.74  -10.34   -6.39   -3.24   -1.19
0  5   -61.54  -61.29  -60.44  -58.53  -54.69  -48.46  -40.84  -32.83  -25.26  -19.54  -14.70  -10.32   -6.38   -3.23   -1.19
0  6   -51.49  -51.40  -51.08  -50.30  -48.46  -44.70  -38.96  -31.99  -24.90  -19.35  -14.61  -10.27   -6.36   -3.23   -1.19
0  7   -42.10  -42.07  -41.94  -41.63  -40.84  -38.96  -35.41  -30.16  -24.04  -18.91  -14.38  -10.16   -6.31   -3.21   -1.18
0  8   -33.35  -33.33  -33.28  -33.16  -32.83  -31.99  -30.16  -26.87  -22.29  -17.94  -13.86   -9.90   -6.20   -3.17   -1.17
0  9   -25.48  -25.48  -25.46  -25.40  -25.26  -24.90  -24.04  -22.29  -19.39  -16.17  -12.83   -9.36   -5.95   -3.08   -1.15
0 10   -19.64  -19.64  -19.63  -19.60  -19.54  -19.35  -18.91  -17.94  -16.17  -13.93  -11.41   -8.55   -5.57   -2.93   -1.11
0 11   -14.76  -14.75  -14.75  -14.74  -14.70  -14.61  -14.38  -13.86  -12.83  -11.41   -9.65   -7.48   -5.02   -2.71   -1.05
0 12   -10.34  -10.34  -10.34  -10.34  -10.32  -10.27  -10.16   -9.90   -9.36   -8.55   -7.48   -6.02   -4.22   -2.37    -.94
0 13    -6.39   -6.39   -6.39   -6.39   -6.38   -6.36   -6.31   -6.20   -5.95   -5.57   -5.02   -4.22   -3.12   -1.86    -.78
0 14    -3.24   -3.24   -3.24   -3.24   -3.23   -3.23   -3.21   -3.17   -3.08   -2.93   -2.71   -2.37   -1.86   -1.20    -.55
0 15    -1.19   -1.19   -1.19   -1.19   -1.19   -1.19   -1.18   -1.17   -1.15   -1.11   -1.05    -.94    -.78    -.55    -.28
0 16     -.30    -.30    -.30    -.30    -.30    -.30    -.30    -.30    -.29    -.29    -.27    -.25    -.22    -.16    -.09
0 17     -.05    -.05    -.05    -.05    -.05    -.05    -.05    -.05    -.05    -.05    -.05    -.05    -.04    -.03    -.02
0 18     -.01    -.01    -.01    -.01    -.01    -.01    -.01    -.01    -.01    -.01    -.01    -.01    -.01    -.01    -.00
0 19     -.00    -.00    -.00    -.00    -.00    -.00    -.00    -.00    -.00    -.00    -.00    -.00    -.00     .00     .00
0 20      .00     .00     .00     .00     .00     .00     .00     .00     .00     .00     .00     .00     .00     .00     .00
0 21      .00     .00     .00     .00     .00     .00     .00     .00     .00     .00     .00     .00     .00     .00     .00
0 22      .00     .00     .00     .00     .00     .00     .00     .00     .00     .00     .00     .00     .00     .00     .00
0 23      .00     .00     .00     .00     .00     .00     .00     .00     .00     .00     .00     .00     .00     .00     .00
0 24      .00     .00     .00     .00     .00     .00     .00     .00     .00     .00     .00     .00     .00     .00     .00
0 25      .00     .00     .00     .00     .00     .00     .00     .00     .00     .00     .00     .00     .00     .00     .00
1                      HEAD IN LAYER  9 AT END OF TIME STEP 17 IN STRESS PERIOD  1
           -----------------------------------------------------------------------

          16      17      18      19      20      21      22      23      24      25
 ........................................................................................
0  1     -.30    -.05    -.01    -.00     .00     .00     .00     .00     .00     .00
0  2     -.30    -.05    -.01    -.00     .00     .00     .00     .00     .00     .00
0  3     -.30    -.05    -.01    -.00     .00     .00     .00     .00     .00     .00
0  4     -.30    -.05    -.01    -.00     .00     .00     .00     .00     .00     .00
0  5     -.30    -.05    -.01    -.00     .00     .00     .00     .00     .00     .00
0  6     -.30    -.05    -.01    -.00     .00     .00     .00     .00     .00     .00
0  7     -.30    -.05    -.01    -.00     .00     .00     .00     .00     .00     .00
0  8     -.30    -.05    -.01    -.00     .00     .00     .00     .00     .00     .00
0  9     -.29    -.05    -.01    -.00     .00     .00     .00     .00     .00     .00
0 10     -.29    -.05    -.01    -.00     .00     .00     .00     .00     .00     .00
0 11     -.27    -.05    -.01    -.00     .00     .00     .00     .00     .00     .00
0 12     -.25    -.05    -.01    -.00     .00     .00     .00     .00     .00     .00
0 13     -.22    -.04    -.01    -.00     .00     .00     .00     .00     .00     .00
0 14     -.16    -.03    -.01     .00     .00     .00     .00     .00     .00     .00
0 15     -.09    -.02    -.00     .00     .00     .00     .00     .00     .00     .00
0 16     -.03    -.01    -.00     .00     .00     .00     .00     .00     .00     .00
0 17     -.01    -.00     .00     .00     .00     .00     .00     .00     .00     .00
0 18     -.00     .00     .00     .00     .00     .00     .00     .00     .00     .00
0 19      .00     .00     .00     .00     .00     .00     .00     .00     .00     .00
0 20      .00     .00     .00     .00     .00     .00     .00     .00     .00     .00
0 21      .00     .00     .00     .00     .00     .00     .00     .00     .00     .00
0 22      .00     .00     .00     .00     .00     .00     .00     .00     .00     .00
0 23      .00     .00     .00     .00     .00     .00     .00     .00     .00     .00
0 24      .00     .00     .00     .00     .00     .00     .00     .00     .00     .00
0 25      .00     .00     .00     .00     .00     .00     .00     .00     .00     .00
1                      HEAD IN LAYER 10 AT END OF TIME STEP 17 IN STRESS PERIOD  1
           -----------------------------------------------------------------------

           1       2       3       4       5       6       7       8       9      10      11      12      13      14      15
 ................................................................................................................................
0  1  -117.71  -98.08  -84.42  -73.43  -62.92  -52.67  -43.09  -34.16  -26.13  -20.16  -15.16  -10.65   -6.59   -3.35   -1.24
0  2   -98.08  -91.50  -82.29  -72.70  -62.66  -52.57  -43.05  -34.14  -26.12  -20.16  -15.16  -10.65   -6.59   -3.35   -1.24
0  3   -84.42  -82.29  -77.44  -70.51  -61.79  -52.25  -42.93  -34.09  -26.10  -20.15  -15.16  -10.64   -6.59   -3.35   -1.24
0  4   -73.43  -72.70  -70.51  -66.41  -59.85  -51.45  -42.61  -33.96  -26.05  -20.12  -15.14  -10.64   -6.59   -3.35   -1.23
0  5   -62.92  -62.66  -61.79  -59.85  -55.93  -49.57  -41.80  -33.63  -25.90  -20.05  -15.11  -10.62   -6.58   -3.34   -1.23
0  6   -52.67  -52.57  -52.25  -51.45  -49.57  -45.74  -39.88  -32.77  -25.53  -19.86  -15.01  -10.57   -6.56   -3.34   -1.23
0  7   -43.09  -43.05  -42.93  -42.61  -41.80  -39.88  -36.26  -30.90  -24.66  -19.41  -14.78  -10.46   -6.51   -3.32   -1.23
0  8   -34.16  -34.14  -34.09  -33.96  -33.63  -32.77  -30.90  -27.55  -22.87  -18.42  -14.25  -10.19   -6.39   -3.28   -1.22
0  9   -26.13  -26.12  -26.10  -26.05  -25.90  -25.53  -24.66  -22.87  -19.90  -16.61  -13.20   -9.64   -6.14   -3.18   -1.19
0 10   -20.16  -20.16  -20.15  -20.12  -20.05  -19.86  -19.41  -18.42  -16.61  -14.32  -11.74   -8.81   -5.74   -3.03   -1.15
0 11   -15.16  -15.16  -15.16  -15.14  -15.11  -15.01  -14.78  -14.25  -13.20  -11.74   -9.94   -7.71   -5.19   -2.81   -1.09
0 12   -10.65  -10.65  -10.64  -10.64  -10.62  -10.57  -10.46  -10.19   -9.64   -8.81   -7.71   -6.21   -4.36   -2.46    -.98
0 13    -6.59   -6.59   -6.59   -6.59   -6.58   -6.56   -6.51   -6.39   -6.14   -5.74   -5.19   -4.36   -3.23   -1.93    -.81
0 14    -3.35   -3.35   -3.35   -3.35   -3.34   -3.34   -3.32   -3.28   -3.18   -3.03   -2.81   -2.46   -1.93   -1.24    -.57
0 15    -1.24   -1.24   -1.24   -1.23   -1.23   -1.23   -1.23   -1.22   -1.19   -1.15   -1.09    -.98    -.81    -.57    -.29
0 16     -.32    -.32    -.32    -.32    -.32    -.31    -.31    -.31    -.31    -.30    -.29    -.26    -.23    -.17    -.10
0 17     -.06    -.06    -.06    -.06    -.06    -.06    -.06    -.06    -.06    -.05    -.05    -.05    -.04    -.03    -.02
0 18     -.01    -.01    -.01    -.01    -.01    -.01    -.01    -.01    -.01    -.01    -.01    -.01    -.01    -.01    -.00
0 19     -.00    -.00    -.00    -.00    -.00    -.00    -.00    -.00    -.00    -.00    -.00    -.00    -.00     .00     .00
0 20      .00     .00     .00     .00     .00     .00     .00     .00     .00     .00     .00     .00     .00     .00     .00
0 21      .00     .00     .00     .00     .00     .00     .00     .00     .00     .00     .00     .00     .00     .00     .00
0 22      .00     .00     .00     .00     .00     .00     .00     .00     .00     .00     .00     .00     .00     .00     .00
0 23      .00     .00     .00     .00     .00     .00     .00     .00     .00     .00     .00     .00     .00     .00     .00
0 24      .00     .00     .00     .00     .00     .00     .00     .00     .00     .00     .00     .00     .00     .00     .00
0 25      .00     .00     .00     .00     .00     .00     .00     .00     .00     .00     .00     .00     .00     .00     .00
1                      HEAD IN LAYER 10 AT END OF TIME STEP 17 IN STRESS PERIOD  1
           -----------------------------------------------------------------------

          16      17      18      19      20      21      22      23      24      25
 ........................................................................................
0  1     -.32    -.06    -.01    -.00     .00     .00     .00     .00     .00     .00
0  2     -.32    -.06    -.01    -.00     .00     .00     .00     .00     .00     .00
0  3     -.32    -.06    -.01    -.00     .00     .00     .00     .00     .00     .00
0  4     -.32    -.06    -.01    -.00     .00     .00     .00     .00     .00     .00
0  5     -.32    -.06    -.01    -.00     .00     .00     .00     .00     .00     .00
0  6     -.31    -.06    -.01    -.00     .00     .00     .00     .00     .00     .00
0  7     -.31    -.06    -.01    -.00     .00     .00     .00     .00     .00     .00
0  8     -.31    -.06    -.01    -.00     .00     .00     .00     .00     .00     .00
0  9     -.31    -.06    -.01    -.00     .00     .00     .00     .00     .00     .00
0 10     -.30    -.05    -.01    -.00     .00     .00     .00     .00     .00     .00
0 11     -.29    -.05    -.01    -.00     .00     .00     .00     .00     .00     .00
0 12     -.26    -.05    -.01    -.00     .00     .00     .00     .00     .00     .00
0 13     -.23    -.04    -.01    -.00     .00     .00     .00     .00     .00     .00
0 14     -.17    -.03    -.01     .00     .00     .00     .00     .00     .00     .00
0 15     -.10    -.02    -.00     .00     .00     .00     .00     .00     .00     .00
0 16     -.04    -.01    -.00     .00     .00     .00     .00     .00     .00     .00
0 17     -.01    -.00     .00     .00     .00     .00     .00     .00     .00     .00
0 18     -.00     .00     .00     .00     .00     .00     .00     .00     .00     .00
0 19      .00     .00     .00     .00     .00     .00     .00     .00     .00     .00
0 20      .00     .00     .00     .00     .00     .00     .00     .00     .00     .00
0 21      .00     .00     .00     .00     .00     .00     .00     .00     .00     .00
0 22      .00     .00     .00     .00     .00     .00     .00     .00     .00     .00
0 23      .00     .00     .00     .00     .00     .00     .00     .00     .00     .00
0 24      .00     .00     .00     .00     .00     .00     .00     .00     .00     .00
0 25      .00     .00     .00     .00     .00     .00     .00     .00     .00     .00
0


                              VOLUMETRIC BUDGET FOR ENTIRE MODEL AT END OF TIME STEP 17 IN STRESS PERIOD  1
                              -----------------------------------------------------------------------------
0                   CUMULATIVE VOLUMES      L**3                                     RATES FOR THIS TIME STEP      L**3/T
                    ------------------                                               ------------------------

                          IN:                                                                    IN:
                          ---                                                                    ---
                            STORAGE =    13661.                                                    STORAGE =    1.5703    
                      CONSTANT HEAD =    1.2101                                              CONSTANT HEAD =    .40684E-03
                              WELLS =    .00000                                                      WELLS =    .00000    
0                          TOTAL IN =    13663.                                                   TOTAL IN =    1.5707    
0                        OUT:                                                                   OUT:
                         ----                                                                   ----
                            STORAGE =    .00000                                                    STORAGE =    .00000    
                      CONSTANT HEAD =    .00000                                              CONSTANT HEAD =    .00000    
                              WELLS =    13663.                                                      WELLS =    1.5707    
0                         TOTAL OUT =    13663.                                                  TOTAL OUT =    1.5707    
0                          IN - OUT =   -.41797                                                   IN - OUT =   -.30994E-04
0               PERCENT DISCREPANCY =                -.00                              PERCENT DISCREPANCY =                -.00



0


          TIME SUMMARY AT END OF TIME STEP 17 IN STRESS PERIOD  1
                               SECONDS        MINUTES         HOURS          DAYS           YEARS
                           ---------------------------------------------------------------------------
      TIME STEP LENGTH         2553.84        42.5639        .709399        .295583E-01    .809262E-04
    STRESS PERIOD TIME         8698.37        144.973        2.41621        .100676        .275635E-03
 TOTAL SIMULATION TIME         8698.37        144.973        2.41621        .100676        .275635E-03
1
    16 ITERATIONS FOR TIME STEP  18 IN STRESS PERIOD  1
0MAXIMUM HEAD CHANGE FOR EACH ITERATION:
0 HEAD CHANGE LAYER,ROW,COL HEAD CHANGE LAYER,ROW,COL HEAD CHANGE LAYER,ROW,COL HEAD CHANGE LAYER,ROW,COL HEAD CHANGE LAYER,ROW,COL
 ------------------------------------------------------------------------------------------------------------------------------------
   -3.205     (  6,  6,  6)  -2.543     (  6,  2,  2)  -1.662     (  6,  1,  1)  -.5972     ( 10,  1,  1)  -.8426     ( 10,  6,  1)
    .3538E-01 ( 10, 12,  1)   .7788E-01 (  9, 13,  1)   .6338E-01 ( 10, 10,  1)   .4692E-01 (  9, 12,  1)   .1182E-01 ( 10,  5,  6)
    .2015E-02 (  6, 12,  1)  -.1923E-02 ( 10,  2,  3)  -.8643E-02 ( 10,  1,  1)   .2791E-02 ( 10,  6,  5)   .3021E-02 ( 10,  1,  1)
    .2256E-03 ( 10, 12,  1)
0
0HEAD/DRAWDOWN PRINTOUT FLAG = 1     TOTAL BUDGET PRINTOUT FLAG = 1     CELL-BY-CELL FLOW TERM FLAG = 0
 REUSING PREVIOUS VALUES OF IOFLG
1                      HEAD IN LAYER  9 AT END OF TIME STEP 18 IN STRESS PERIOD  1
           -----------------------------------------------------------------------

           1       2       3       4       5       6       7       8       9      10      11      12      13      14      15
 ................................................................................................................................
0  1  -118.09  -98.52  -84.97  -74.13  -63.79  -53.72  -44.30  -35.48  -27.53  -21.58  -16.55  -11.93   -7.70   -4.17   -1.70
0  2   -98.52  -91.98  -82.87  -73.40  -63.53  -53.63  -44.26  -35.47  -27.52  -21.57  -16.54  -11.93   -7.70   -4.17   -1.70
0  3   -84.97  -82.87  -78.08  -71.25  -62.68  -53.31  -44.14  -35.42  -27.50  -21.56  -16.54  -11.93   -7.69   -4.17   -1.70
0  4   -74.13  -73.40  -71.25  -67.22  -60.78  -52.52  -43.82  -35.29  -27.45  -21.54  -16.53  -11.92   -7.69   -4.17   -1.70
0  5   -63.79  -63.53  -62.68  -60.78  -56.92  -50.68  -43.03  -34.96  -27.31  -21.47  -16.49  -11.91   -7.68   -4.17   -1.70
0  6   -53.72  -53.63  -53.31  -52.52  -50.68  -46.91  -41.14  -34.11  -26.94  -21.28  -16.39  -11.86   -7.66   -4.16   -1.70
0  7   -44.30  -44.26  -44.14  -43.82  -43.03  -41.14  -37.56  -32.26  -26.06  -20.82  -16.15  -11.74   -7.61   -4.14   -1.69
0  8   -35.48  -35.47  -35.42  -35.29  -34.96  -34.11  -32.26  -28.94  -24.28  -19.83  -15.62  -11.46   -7.48   -4.09   -1.68
0  9   -27.53  -27.52  -27.50  -27.45  -27.31  -26.94  -26.06  -24.28  -21.32  -18.00  -14.55  -10.89   -7.22   -3.98   -1.65
0 10   -21.58  -21.57  -21.56  -21.54  -21.47  -21.28  -20.82  -19.83  -18.00  -15.69  -13.05  -10.03   -6.79   -3.81   -1.60
0 11   -16.55  -16.54  -16.54  -16.52  -16.49  -16.39  -16.15  -15.62  -14.55  -13.05  -11.20   -8.87   -6.19   -3.56   -1.52
0 12   -11.93  -11.93  -11.93  -11.92  -11.91  -11.86  -11.74  -11.46  -10.89  -10.03   -8.87   -7.29   -5.29   -3.16   -1.39
0 13    -7.70   -7.70   -7.69   -7.69   -7.68   -7.66   -7.61   -7.48   -7.22   -6.79   -6.19   -5.29   -4.04   -2.55   -1.18
0 14    -4.17   -4.17   -4.17   -4.17   -4.17   -4.16   -4.14   -4.09   -3.98   -3.81   -3.56   -3.16   -2.55   -1.72    -.86
0 15    -1.70   -1.70   -1.70   -1.70   -1.70   -1.70   -1.69   -1.68   -1.65   -1.60   -1.52   -1.39   -1.18    -.86    -.47
0 16     -.50    -.50    -.50    -.50    -.50    -.50    -.50    -.50    -.49    -.48    -.46    -.43    -.38    -.29    -.18
0 17     -.11    -.11    -.11    -.11    -.11    -.11    -.11    -.11    -.10    -.10    -.10    -.09    -.09    -.07    -.05
0 18     -.02    -.02    -.02    -.02    -.02    -.02    -.02    -.02    -.02    -.02    -.02    -.02    -.02    -.01    -.01
0 19     -.00    -.00    -.00    -.00    -.00    -.00    -.00    -.00    -.00    -.00    -.00    -.00    -.00    -.00    -.00
0 20      .00     .00     .00     .00     .00     .00     .00     .00     .00     .00     .00     .00     .00     .00     .00
0 21      .00     .00     .00     .00     .00     .00     .00     .00     .00     .00     .00     .00     .00     .00     .00
0 22      .00     .00     .00     .00     .00     .00     .00     .00     .00     .00     .00     .00     .00     .00     .00
0 23      .00     .00     .00     .00     .00     .00     .00     .00     .00     .00     .00     .00     .00     .00     .00
0 24      .00     .00     .00     .00     .00     .00     .00     .00     .00     .00     .00     .00     .00     .00     .00
0 25      .00     .00     .00     .00     .00     .00     .00     .00     .00     .00     .00     .00     .00     .00     .00
1                      HEAD IN LAYER  9 AT END OF TIME STEP 18 IN STRESS PERIOD  1
           -----------------------------------------------------------------------

          16      17      18      19      20      21      22      23      24      25
 ........................................................................................
0  1     -.50    -.11    -.02    -.00     .00     .00     .00     .00     .00     .00
0  2     -.50    -.11    -.02    -.00     .00     .00     .00     .00     .00     .00
0  3     -.50    -.11    -.02    -.00     .00     .00     .00     .00     .00     .00
0  4     -.50    -.11    -.02    -.00     .00     .00     .00     .00     .00     .00
0  5     -.50    -.11    -.02    -.00     .00     .00     .00     .00     .00     .00
0  6     -.50    -.11    -.02    -.00     .00     .00     .00     .00     .00     .00
0  7     -.50    -.11    -.02    -.00     .00     .00     .00     .00     .00     .00
0  8     -.50    -.11    -.02    -.00     .00     .00     .00     .00     .00     .00
0  9     -.49    -.10    -.02    -.00     .00     .00     .00     .00     .00     .00
0 10     -.48    -.10    -.02    -.00     .00     .00     .00     .00     .00     .00
0 11     -.46    -.10    -.02    -.00     .00     .00     .00     .00     .00     .00
0 12     -.43    -.09    -.02    -.00     .00     .00     .00     .00     .00     .00
0 13     -.38    -.09    -.02    -.00     .00     .00     .00     .00     .00     .00
0 14     -.29    -.07    -.01    -.00     .00     .00     .00     .00     .00     .00
0 15     -.18    -.05    -.01    -.00     .00     .00     .00     .00     .00     .00
0 16     -.08    -.02    -.01    -.00     .00     .00     .00     .00     .00     .00
0 17     -.02    -.01    -.00     .00     .00     .00     .00     .00     .00     .00
0 18     -.01    -.00     .00     .00     .00     .00     .00     .00     .00     .00
0 19     -.00     .00     .00     .00     .00     .00     .00     .00     .00     .00
0 20      .00     .00     .00     .00     .00     .00     .00     .00     .00     .00
0 21      .00     .00     .00     .00     .00     .00     .00     .00     .00     .00
0 22      .00     .00     .00     .00     .00     .00     .00     .00     .00     .00
0 23      .00     .00     .00     .00     .00     .00     .00     .00     .00     .00
0 24      .00     .00     .00     .00     .00     .00     .00     .00     .00     .00
0 25      .00     .00     .00     .00     .00     .00     .00     .00     .00     .00
1                      HEAD IN LAYER 10 AT END OF TIME STEP 18 IN STRESS PERIOD  1
           -----------------------------------------------------------------------

           1       2       3       4       5       6       7       8       9      10      11      12      13      14      15
 ................................................................................................................................
0  1  -119.81 -100.18  -86.51  -75.53  -65.01  -54.76  -45.16  -36.19  -28.10  -22.04  -16.92  -12.22   -7.89   -4.29   -1.76
0  2  -100.18  -93.60  -84.38  -74.79  -64.75  -54.66  -45.12  -36.18  -28.09  -22.04  -16.92  -12.22   -7.89   -4.28   -1.76
0  3   -86.51  -84.38  -79.53  -72.60  -63.88  -54.33  -45.00  -36.13  -28.07  -22.03  -16.91  -12.21   -7.89   -4.28   -1.76
0  4   -75.53  -74.79  -72.60  -68.50  -61.94  -53.53  -44.68  -36.00  -28.02  -22.00  -16.90  -12.21   -7.89   -4.28   -1.76
0  5   -65.01  -64.75  -63.88  -61.94  -58.02  -51.65  -43.87  -35.66  -27.87  -21.93  -16.86  -12.19   -7.88   -4.28   -1.76
0  6   -54.76  -54.66  -54.33  -53.53  -51.65  -47.82  -41.94  -34.80  -27.50  -21.74  -16.76  -12.14   -7.86   -4.27   -1.75
0  7   -45.16  -45.12  -45.00  -44.68  -43.87  -41.94  -38.31  -32.92  -26.61  -21.28  -16.52  -12.02   -7.80   -4.25   -1.75
0  8   -36.19  -36.18  -36.13  -36.00  -35.66  -34.80  -32.92  -29.54  -24.80  -20.27  -15.97  -11.74   -7.67   -4.20   -1.73
0  9   -28.10  -28.09  -28.07  -28.02  -27.87  -27.50  -26.61  -24.80  -21.78  -18.40  -14.88  -11.15   -7.40   -4.10   -1.70
0 10   -22.04  -22.04  -22.03  -22.00  -21.93  -21.74  -21.28  -20.27  -18.40  -16.05  -13.36  -10.27   -6.97   -3.92   -1.65
0 11   -16.92  -16.92  -16.91  -16.90  -16.86  -16.76  -16.52  -15.97  -14.88  -13.36  -11.47   -9.09   -6.35   -3.66   -1.57
0 12   -12.22  -12.22  -12.21  -12.21  -12.19  -12.14  -12.02  -11.74  -11.15  -10.27   -9.09   -7.48   -5.44   -3.25   -1.43
0 13    -7.89   -7.89   -7.89   -7.89   -7.88   -7.86   -7.80   -7.67   -7.40   -6.97   -6.35   -5.44   -4.15   -2.62   -1.22
0 14    -4.29   -4.28   -4.28   -4.28   -4.28   -4.27   -4.25   -4.20   -4.10   -3.92   -3.66   -3.25   -2.62   -1.77    -.89
0 15    -1.76   -1.76   -1.76   -1.76   -1.76   -1.75   -1.75   -1.73   -1.70   -1.65   -1.57   -1.43   -1.22    -.89    -.49
0 16     -.52    -.52    -.52    -.52    -.52    -.52    -.52    -.51    -.51    -.49    -.48    -.44    -.39    -.30    -.19
0 17     -.11    -.11    -.11    -.11    -.11    -.11    -.11    -.11    -.11    -.11    -.10    -.10    -.09    -.07    -.05
0 18     -.02    -.02    -.02    -.02    -.02    -.02    -.02    -.02    -.02    -.02    -.02    -.02    -.02    -.01    -.01
0 19     -.00    -.00    -.00    -.00    -.00    -.00    -.00    -.00    -.00    -.00    -.00    -.00    -.00    -.00    -.00
0 20      .00     .00     .00     .00     .00     .00     .00     .00     .00     .00     .00     .00     .00     .00     .00
0 21      .00     .00     .00     .00     .00     .00     .00     .00     .00     .00     .00     .00     .00     .00     .00
0 22      .00     .00     .00     .00     .00     .00     .00     .00     .00     .00     .00     .00     .00     .00     .00
0 23      .00     .00     .00     .00     .00     .00     .00     .00     .00     .00     .00     .00     .00     .00     .00
0 24      .00     .00     .00     .00     .00     .00     .00     .00     .00     .00     .00     .00     .00     .00     .00
0 25      .00     .00     .00     .00     .00     .00     .00     .00     .00     .00     .00     .00     .00     .00     .00
1                      HEAD IN LAYER 10 AT END OF TIME STEP 18 IN STRESS PERIOD  1
           -----------------------------------------------------------------------

          16      17      18      19      20      21      22      23      24      25
 ........................................................................................
0  1     -.52    -.11    -.02    -.00     .00     .00     .00     .00     .00     .00
0  2     -.52    -.11    -.02    -.00     .00     .00     .00     .00     .00     .00
0  3     -.52    -.11    -.02    -.00     .00     .00     .00     .00     .00     .00
0  4     -.52    -.11    -.02    -.00     .00     .00     .00     .00     .00     .00
0  5     -.52    -.11    -.02    -.00     .00     .00     .00     .00     .00     .00
0  6     -.52    -.11    -.02    -.00     .00     .00     .00     .00     .00     .00
0  7     -.52    -.11    -.02    -.00     .00     .00     .00     .00     .00     .00
0  8     -.51    -.11    -.02    -.00     .00     .00     .00     .00     .00     .00
0  9     -.51    -.11    -.02    -.00     .00     .00     .00     .00     .00     .00
0 10     -.49    -.11    -.02    -.00     .00     .00     .00     .00     .00     .00
0 11     -.48    -.10    -.02    -.00     .00     .00     .00     .00     .00     .00
0 12     -.44    -.10    -.02    -.00     .00     .00     .00     .00     .00     .00
0 13     -.39    -.09    -.02    -.00     .00     .00     .00     .00     .00     .00
0 14     -.30    -.07    -.01    -.00     .00     .00     .00     .00     .00     .00
0 15     -.19    -.05    -.01    -.00     .00     .00     .00     .00     .00     .00
0 16     -.08    -.02    -.01    -.00     .00     .00     .00     .00     .00     .00
0 17     -.02    -.01    -.00     .00     .00     .00     .00     .00     .00     .00
0 18     -.01    -.00     .00     .00     .00     .00     .00     .00     .00     .00
0 19     -.00     .00     .00     .00     .00     .00     .00     .00     .00     .00
0 20      .00     .00     .00     .00     .00     .00     .00     .00     .00     .00
0 21      .00     .00     .00     .00     .00     .00     .00     .00     .00     .00
0 22      .00     .00     .00     .00     .00     .00     .00     .00     .00     .00
0 23      .00     .00     .00     .00     .00     .00     .00     .00     .00     .00
0 24      .00     .00     .00     .00     .00     .00     .00     .00     .00     .00
0 25      .00     .00     .00     .00     .00     .00     .00     .00     .00     .00
0


                              VOLUMETRIC BUDGET FOR ENTIRE MODEL AT END OF TIME STEP 18 IN STRESS PERIOD  1
                              -----------------------------------------------------------------------------
0                   CUMULATIVE VOLUMES      L**3                                     RATES FOR THIS TIME STEP      L**3/T
                    ------------------                                               ------------------------

                          IN:                                                                    IN:
                          ---                                                                    ---
                            STORAGE =    19327.                                                    STORAGE =    1.5690    
                      CONSTANT HEAD =    7.3758                                              CONSTANT HEAD =    .17074E-02
                              WELLS =    .00000                                                      WELLS =    .00000    
0                          TOTAL IN =    19334.                                                   TOTAL IN =    1.5707    
0                        OUT:                                                                   OUT:
                         ----                                                                   ----
                            STORAGE =    .00000                                                    STORAGE =    .00000    
                      CONSTANT HEAD =    .00000                                              CONSTANT HEAD =    .00000    
                              WELLS =    19335.                                                      WELLS =    1.5707    
0                         TOTAL OUT =    19335.                                                  TOTAL OUT =    1.5707    
0                          IN - OUT =   -.65234                                                   IN - OUT =   -.64731E-04
0               PERCENT DISCREPANCY =                -.00                              PERCENT DISCREPANCY =                -.00



0


          TIME SUMMARY AT END OF TIME STEP 18 IN STRESS PERIOD  1
                               SECONDS        MINUTES         HOURS          DAYS           YEARS
                           ---------------------------------------------------------------------------
      TIME STEP LENGTH         3611.12        60.1854        1.00309        .417954E-01    .114430E-03
    STRESS PERIOD TIME         12309.5        205.158        3.41930        .142471        .390064E-03
 TOTAL SIMULATION TIME         12309.5        205.158        3.41930        .142471        .390064E-03
1
    16 ITERATIONS FOR TIME STEP  19 IN STRESS PERIOD  1
0MAXIMUM HEAD CHANGE FOR EACH ITERATION:
0 HEAD CHANGE LAYER,ROW,COL HEAD CHANGE LAYER,ROW,COL HEAD CHANGE LAYER,ROW,COL HEAD CHANGE LAYER,ROW,COL HEAD CHANGE LAYER,ROW,COL
 ------------------------------------------------------------------------------------------------------------------------------------
   -3.142     (  5,  6,  6)  -2.474     (  5,  2,  2)  -1.956     (  5,  1,  1)  -.6018     ( 10,  1,  1)  -.9034     ( 10,  6,  1)
    .3400E-01 ( 10, 12,  1)   .8167E-01 (  9, 13,  1)   .6702E-01 ( 10, 10,  2)   .6152E-01 (  9, 12,  1)   .8915E-02 ( 10,  4,  6)
    .2308E-02 (  6, 12,  1)   .1835E-02 ( 10,  9,  8)  -.7154E-02 ( 10,  1,  1)   .3191E-02 ( 10,  5,  5)   .4575E-02 ( 10,  1,  1)
    .1782E-03 ( 10, 12,  1)
0
0HEAD/DRAWDOWN PRINTOUT FLAG = 1     TOTAL BUDGET PRINTOUT FLAG = 1     CELL-BY-CELL FLOW TERM FLAG = 0
 REUSING PREVIOUS VALUES OF IOFLG
1                      HEAD IN LAYER  9 AT END OF TIME STEP 19 IN STRESS PERIOD  1
           -----------------------------------------------------------------------

           1       2       3       4       5       6       7       8       9      10      11      12      13      14      15
 ................................................................................................................................
0  1  -120.27 -100.71  -87.16  -76.31  -65.97  -55.89  -46.43  -37.57  -29.54  -23.49  -18.34  -13.55   -9.07   -5.20   -2.32
0  2  -100.71  -94.17  -85.05  -75.59  -65.71  -55.79  -46.40  -37.56  -29.53  -23.49  -18.34  -13.55   -9.07   -5.20   -2.32
0  3   -87.16  -85.05  -80.26  -73.43  -64.86  -55.47  -46.27  -37.51  -29.51  -23.48  -18.33  -13.55   -9.06   -5.20   -2.32
0  4   -76.31  -75.59  -73.43  -69.40  -62.95  -54.68  -45.96  -37.38  -29.46  -23.45  -18.32  -13.54   -9.06   -5.19   -2.32
0  5   -65.97  -65.71  -64.86  -62.95  -59.09  -52.83  -45.16  -37.04  -29.31  -23.38  -18.28  -13.52   -9.05   -5.19   -2.32
0  6   -55.89  -55.79  -55.47  -54.68  -52.83  -49.05  -43.26  -36.19  -28.94  -23.19  -18.18  -13.47   -9.03   -5.18   -2.32
0  7   -46.43  -46.40  -46.27  -45.96  -45.16  -43.26  -39.66  -34.32  -28.06  -22.72  -17.93  -13.35   -8.97   -5.16   -2.31
0  8   -37.57  -37.56  -37.51  -37.38  -37.04  -36.19  -34.32  -30.97  -26.25  -21.71  -17.38  -13.06   -8.84   -5.11   -2.30
0  9   -29.54  -29.53  -29.51  -29.46  -29.31  -28.94  -28.06  -26.25  -23.23  -19.84  -16.27  -12.46   -8.55   -4.99   -2.26
0 10   -23.49  -23.49  -23.48  -23.45  -23.38  -23.19  -22.72  -21.71  -19.84  -17.46  -14.72  -11.55   -8.09   -4.79   -2.20
0 11   -18.34  -18.34  -18.33  -18.32  -18.28  -18.18  -17.93  -17.38  -16.27  -14.72  -12.78  -10.32   -7.44   -4.51   -2.10
0 12   -13.55  -13.55  -13.55  -13.54  -13.52  -13.47  -13.35  -13.06  -12.46  -11.55  -10.32   -8.63   -6.45   -4.05   -1.94
0 13    -9.07   -9.07   -9.06   -9.06   -9.05   -9.03   -8.97   -8.84   -8.55   -8.09   -7.44   -6.45   -5.06   -3.34   -1.67
0 14    -5.20   -5.20   -5.20   -5.19   -5.19   -5.18   -5.16   -5.11   -4.99   -4.79   -4.51   -4.05   -3.34   -2.35   -1.27
0 15    -2.32   -2.32   -2.32   -2.32   -2.32   -2.32   -2.31   -2.30   -2.26   -2.20   -2.10   -1.94   -1.67   -1.27    -.75
0 16     -.78    -.78    -.78    -.78    -.78    -.78    -.77    -.77    -.76    -.74    -.72    -.68    -.61    -.49    -.32
0 17     -.19    -.19    -.19    -.19    -.19    -.19    -.19    -.19    -.19    -.19    -.18    -.17    -.16    -.13    -.09
0 18     -.04    -.04    -.04    -.04    -.04    -.04    -.04    -.04    -.04    -.04    -.04    -.04    -.04    -.03    -.02
0 19     -.01    -.01    -.01    -.01    -.01    -.01    -.01    -.01    -.01    -.01    -.01    -.01    -.01    -.01    -.01
0 20     -.00    -.00    -.00    -.00    -.00    -.00    -.00    -.00    -.00    -.00    -.00    -.00    -.00    -.00    -.00
0 21      .00     .00     .00     .00     .00     .00     .00     .00     .00     .00     .00     .00     .00     .00     .00
0 22      .00     .00     .00     .00     .00     .00     .00     .00     .00     .00     .00     .00     .00     .00     .00
0 23      .00     .00     .00     .00     .00     .00     .00     .00     .00     .00     .00     .00     .00     .00     .00
0 24      .00     .00     .00     .00     .00     .00     .00     .00     .00     .00     .00     .00     .00     .00     .00
0 25      .00     .00     .00     .00     .00     .00     .00     .00     .00     .00     .00     .00     .00     .00     .00
1                      HEAD IN LAYER  9 AT END OF TIME STEP 19 IN STRESS PERIOD  1
           -----------------------------------------------------------------------

          16      17      18      19      20      21      22      23      24      25
 ........................................................................................
0  1     -.78    -.19    -.04    -.01    -.00     .00     .00     .00     .00     .00
0  2     -.78    -.19    -.04    -.01    -.00     .00     .00     .00     .00     .00
0  3     -.78    -.19    -.04    -.01    -.00     .00     .00     .00     .00     .00
0  4     -.78    -.19    -.04    -.01    -.00     .00     .00     .00     .00     .00
0  5     -.78    -.19    -.04    -.01    -.00     .00     .00     .00     .00     .00
0  6     -.78    -.19    -.04    -.01    -.00     .00     .00     .00     .00     .00
0  7     -.77    -.19    -.04    -.01    -.00     .00     .00     .00     .00     .00
0  8     -.77    -.19    -.04    -.01    -.00     .00     .00     .00     .00     .00
0  9     -.76    -.19    -.04    -.01    -.00     .00     .00     .00     .00     .00
0 10     -.74    -.19    -.04    -.01    -.00     .00     .00     .00     .00     .00
0 11     -.72    -.18    -.04    -.01    -.00     .00     .00     .00     .00     .00
0 12     -.68    -.17    -.04    -.01    -.00     .00     .00     .00     .00     .00
0 13     -.61    -.16    -.04    -.01    -.00     .00     .00     .00     .00     .00
0 14     -.49    -.13    -.03    -.01    -.00     .00     .00     .00     .00     .00
0 15     -.32    -.09    -.02    -.01    -.00     .00     .00     .00     .00     .00
0 16     -.15    -.05    -.01    -.00     .00     .00     .00     .00     .00     .00
0 17     -.05    -.02    -.01    -.00     .00     .00     .00     .00     .00     .00
0 18     -.01    -.01    -.00     .00     .00     .00     .00     .00     .00     .00
0 19     -.00    -.00     .00     .00     .00     .00     .00     .00     .00     .00
0 20      .00     .00     .00     .00     .00     .00     .00     .00     .00     .00
0 21      .00     .00     .00     .00     .00     .00     .00     .00     .00     .00
0 22      .00     .00     .00     .00     .00     .00     .00     .00     .00     .00
0 23      .00     .00     .00     .00     .00     .00     .00     .00     .00     .00
0 24      .00     .00     .00     .00     .00     .00     .00     .00     .00     .00
0 25      .00     .00     .00     .00     .00     .00     .00     .00     .00     .00
1                      HEAD IN LAYER 10 AT END OF TIME STEP 19 IN STRESS PERIOD  1
           -----------------------------------------------------------------------

           1       2       3       4       5       6       7       8       9      10      11      12      13      14      15
 ................................................................................................................................
0  1  -121.86 -102.22  -88.56  -77.57  -67.06  -56.80  -47.19  -38.19  -30.04  -23.91  -18.68  -13.82   -9.25   -5.31   -2.38
0  2  -102.22  -95.64  -86.43  -76.84  -66.79  -56.70  -47.15  -38.18  -30.04  -23.90  -18.68  -13.81   -9.25   -5.31   -2.38
0  3   -88.56  -86.43  -81.58  -74.65  -65.93  -56.37  -47.02  -38.13  -30.02  -23.89  -18.67  -13.81   -9.25   -5.31   -2.38
0  4   -77.57  -76.84  -74.65  -70.55  -63.99  -55.57  -46.70  -38.00  -29.96  -23.87  -18.66  -13.80   -9.25   -5.31   -2.38
0  5   -67.06  -66.79  -65.93  -63.99  -60.06  -53.69  -45.89  -37.66  -29.82  -23.79  -18.62  -13.79   -9.24   -5.31   -2.38
0  6   -56.80  -56.70  -56.37  -55.57  -53.69  -49.85  -43.96  -36.79  -29.44  -23.60  -18.52  -13.73   -9.22   -5.30   -2.38
0  7   -47.19  -47.15  -47.02  -46.70  -45.89  -43.96  -40.32  -34.90  -28.54  -23.13  -18.27  -13.61   -9.16   -5.27   -2.37
0  8   -38.19  -38.18  -38.13  -38.00  -37.66  -36.79  -34.90  -31.49  -26.71  -22.10  -17.70  -13.31   -9.02   -5.22   -2.35
0  9   -30.04  -30.04  -30.02  -29.96  -29.82  -29.44  -28.54  -26.71  -23.64  -20.20  -16.58  -12.70   -8.73   -5.10   -2.31
0 10   -23.91  -23.90  -23.89  -23.87  -23.79  -23.60  -23.13  -22.10  -20.20  -17.78  -15.00  -11.78   -8.26   -4.90   -2.25
0 11   -18.68  -18.68  -18.67  -18.66  -18.62  -18.52  -18.27  -17.70  -16.58  -15.00  -13.03  -10.53   -7.59   -4.61   -2.15
0 12   -13.82  -13.81  -13.81  -13.80  -13.79  -13.73  -13.61  -13.31  -12.70  -11.78  -10.53   -8.81   -6.59   -4.14   -1.99
0 13    -9.25   -9.25   -9.25   -9.25   -9.24   -9.22   -9.16   -9.02   -8.73   -8.26   -7.59   -6.59   -5.17   -3.42   -1.72
0 14    -5.31   -5.31   -5.31   -5.31   -5.31   -5.30   -5.27   -5.22   -5.10   -4.90   -4.61   -4.14   -3.42   -2.41   -1.30
0 15    -2.38   -2.38   -2.38   -2.38   -2.38   -2.38   -2.37   -2.35   -2.31   -2.25   -2.15   -1.99   -1.72   -1.30    -.77
0 16     -.80    -.80    -.80    -.80    -.80    -.80    -.79    -.79    -.78    -.76    -.74    -.70    -.62    -.50    -.33
0 17     -.20    -.20    -.20    -.20    -.20    -.20    -.20    -.20    -.20    -.19    -.19    -.18    -.16    -.14    -.10
0 18     -.04    -.04    -.04    -.04    -.04    -.04    -.04    -.04    -.04    -.04    -.04    -.04    -.04    -.03    -.02
0 19     -.01    -.01    -.01    -.01    -.01    -.01    -.01    -.01    -.01    -.01    -.01    -.01    -.01    -.01    -.01
0 20     -.00    -.00    -.00    -.00    -.00    -.00    -.00    -.00    -.00    -.00    -.00    -.00    -.00    -.00    -.00
0 21      .00     .00     .00     .00     .00     .00     .00     .00     .00     .00     .00     .00     .00     .00     .00
0 22      .00     .00     .00     .00     .00     .00     .00     .00     .00     .00     .00     .00     .00     .00     .00
0 23      .00     .00     .00     .00     .00     .00     .00     .00     .00     .00     .00     .00     .00     .00     .00
0 24      .00     .00     .00     .00     .00     .00     .00     .00     .00     .00     .00     .00     .00     .00     .00
0 25      .00     .00     .00     .00     .00     .00     .00     .00     .00     .00     .00     .00     .00     .00     .00
1                      HEAD IN LAYER 10 AT END OF TIME STEP 19 IN STRESS PERIOD  1
           -----------------------------------------------------------------------

          16      17      18      19      20      21      22      23      24      25
 ........................................................................................
0  1     -.80    -.20    -.04    -.01    -.00     .00     .00     .00     .00     .00
0  2     -.80    -.20    -.04    -.01    -.00     .00     .00     .00     .00     .00
0  3     -.80    -.20    -.04    -.01    -.00     .00     .00     .00     .00     .00
0  4     -.80    -.20    -.04    -.01    -.00     .00     .00     .00     .00     .00
0  5     -.80    -.20    -.04    -.01    -.00     .00     .00     .00     .00     .00
0  6     -.80    -.20    -.04    -.01    -.00     .00     .00     .00     .00     .00
0  7     -.79    -.20    -.04    -.01    -.00     .00     .00     .00     .00     .00
0  8     -.79    -.20    -.04    -.01    -.00     .00     .00     .00     .00     .00
0  9     -.78    -.20    -.04    -.01    -.00     .00     .00     .00     .00     .00
0 10     -.76    -.19    -.04    -.01    -.00     .00     .00     .00     .00     .00
0 11     -.74    -.19    -.04    -.01    -.00     .00     .00     .00     .00     .00
0 12     -.70    -.18    -.04    -.01    -.00     .00     .00     .00     .00     .00
0 13     -.62    -.16    -.04    -.01    -.00     .00     .00     .00     .00     .00
0 14     -.50    -.14    -.03    -.01    -.00     .00     .00     .00     .00     .00
0 15     -.33    -.10    -.02    -.01    -.00     .00     .00     .00     .00     .00
0 16     -.15    -.05    -.01    -.00     .00     .00     .00     .00     .00     .00
0 17     -.05    -.02    -.01    -.00     .00     .00     .00     .00     .00     .00
0 18     -.01    -.01    -.00     .00     .00     .00     .00     .00     .00     .00
0 19     -.00    -.00     .00     .00     .00     .00     .00     .00     .00     .00
0 20      .00     .00     .00     .00     .00     .00     .00     .00     .00     .00
0 21      .00     .00     .00     .00     .00     .00     .00     .00     .00     .00
0 22      .00     .00     .00     .00     .00     .00     .00     .00     .00     .00
0 23      .00     .00     .00     .00     .00     .00     .00     .00     .00     .00
0 24      .00     .00     .00     .00     .00     .00     .00     .00     .00     .00
0 25      .00     .00     .00     .00     .00     .00     .00     .00     .00     .00
0


                              VOLUMETRIC BUDGET FOR ENTIRE MODEL AT END OF TIME STEP 19 IN STRESS PERIOD  1
                              -----------------------------------------------------------------------------
0                   CUMULATIVE VOLUMES      L**3                                     RATES FOR THIS TIME STEP      L**3/T
                    ------------------                                               ------------------------

                          IN:                                                                    IN:
                          ---                                                                    ---
                            STORAGE =    27316.                                                    STORAGE =    1.5645    
                      CONSTANT HEAD =    38.627                                              CONSTANT HEAD =    .61202E-02
                              WELLS =    .00000                                                      WELLS =    .00000    
0                          TOTAL IN =    27354.                                                   TOTAL IN =    1.5706    
0                        OUT:                                                                   OUT:
                         ----                                                                   ----
                            STORAGE =    .00000                                                    STORAGE =    .00000    
                      CONSTANT HEAD =    .00000                                              CONSTANT HEAD =    .00000    
                              WELLS =    27356.                                                      WELLS =    1.5707    
0                         TOTAL OUT =    27356.                                                  TOTAL OUT =    1.5707    
0                          IN - OUT =   -1.3711                                                   IN - OUT =   -.14114E-03
0               PERCENT DISCREPANCY =                -.01                              PERCENT DISCREPANCY =                -.01



0


          TIME SUMMARY AT END OF TIME STEP 19 IN STRESS PERIOD  1
                               SECONDS        MINUTES         HOURS          DAYS           YEARS
                           ---------------------------------------------------------------------------
      TIME STEP LENGTH         5106.13        85.1021        1.41837        .590987E-01    .161803E-03
    STRESS PERIOD TIME         17415.6        290.260        4.83767        .201570        .551868E-03
 TOTAL SIMULATION TIME         17415.6        290.260        4.83767        .201570        .551868E-03
1
    16 ITERATIONS FOR TIME STEP  20 IN STRESS PERIOD  1
0MAXIMUM HEAD CHANGE FOR EACH ITERATION:
0 HEAD CHANGE LAYER,ROW,COL HEAD CHANGE LAYER,ROW,COL HEAD CHANGE LAYER,ROW,COL HEAD CHANGE LAYER,ROW,COL HEAD CHANGE LAYER,ROW,COL
 ------------------------------------------------------------------------------------------------------------------------------------
   -2.995     (  5,  7,  7)  -2.332     (  5,  2,  3)  -2.344     (  5,  1,  1)  -.6087     ( 10,  1,  1)  -.9623     ( 10,  6,  1)
    .3269E-01 ( 10, 13,  1)   .8436E-01 (  9, 13,  1)   .7143E-01 ( 10, 11,  1)   .7886E-01 (  9, 12,  1)  -.8743E-02 (  9, 14,  3)
    .2589E-02 (  6, 13,  1)   .2017E-02 ( 10,  9,  7)  -.5459E-02 ( 10,  1,  1)   .3748E-02 ( 10,  5,  4)   .6813E-02 ( 10,  1,  1)
   -.1452E-03 ( 10, 11, 11)
0
0HEAD/DRAWDOWN PRINTOUT FLAG = 1     TOTAL BUDGET PRINTOUT FLAG = 1     CELL-BY-CELL FLOW TERM FLAG = 0
 REUSING PREVIOUS VALUES OF IOFLG
1                      HEAD IN LAYER  9 AT END OF TIME STEP 20 IN STRESS PERIOD  1
           -----------------------------------------------------------------------

           1       2       3       4       5       6       7       8       9      10      11      12      13      14      15
 ................................................................................................................................
0  1  -122.40 -102.83  -89.28  -78.43  -68.09  -57.99  -48.52  -39.62  -31.52  -25.39  -20.13  -15.20  -10.49   -6.31   -3.05
0  2  -102.83  -96.29  -87.17  -77.71  -67.83  -57.90  -48.48  -39.60  -31.51  -25.39  -20.13  -15.20  -10.49   -6.31   -3.05
0  3   -89.28  -87.17  -82.38  -75.55  -66.98  -57.58  -48.36  -39.55  -31.49  -25.38  -20.13  -15.19  -10.49   -6.31   -3.05
0  4   -78.43  -77.71  -75.55  -71.52  -65.07  -56.79  -48.04  -39.42  -31.44  -25.35  -20.11  -15.18  -10.48   -6.31   -3.04
0  5   -68.09  -67.83  -66.98  -65.07  -61.20  -54.94  -47.24  -39.09  -31.29  -25.28  -20.07  -15.17  -10.47   -6.30   -3.04
0  6   -57.99  -57.90  -57.58  -56.79  -54.94  -51.15  -45.33  -38.23  -30.92  -25.08  -19.97  -15.11  -10.45   -6.29   -3.04
0  7   -48.52  -48.48  -48.36  -48.04  -47.24  -45.33  -41.72  -36.35  -30.02  -24.61  -19.72  -14.98  -10.39   -6.27   -3.03
0  8   -39.62  -39.60  -39.55  -39.42  -39.08  -38.23  -36.35  -32.96  -28.19  -23.58  -19.15  -14.68  -10.25   -6.21   -3.01
0  9   -31.52  -31.51  -31.49  -31.44  -31.29  -30.92  -30.02  -28.19  -25.13  -21.67  -18.01  -14.06   -9.94   -6.08   -2.97
0 10   -25.39  -25.39  -25.38  -25.35  -25.28  -25.08  -24.61  -23.58  -21.67  -19.23  -16.41  -13.10   -9.45   -5.86   -2.89
0 11   -20.13  -20.13  -20.13  -20.11  -20.07  -19.97  -19.72  -19.15  -18.01  -16.41  -14.40  -11.82   -8.75   -5.55   -2.78
0 12   -15.20  -15.19  -15.19  -15.18  -15.17  -15.11  -14.98  -14.68  -14.06  -13.10  -11.82  -10.02   -7.68   -5.03   -2.59
0 13   -10.49  -10.49  -10.49  -10.48  -10.47  -10.45  -10.39  -10.25   -9.94   -9.45   -8.75   -7.68   -6.15   -4.22   -2.27
0 14    -6.31   -6.31   -6.31   -6.31   -6.30   -6.29   -6.27   -6.21   -6.08   -5.86   -5.54   -5.03   -4.22   -3.08   -1.77
0 15    -3.05   -3.05   -3.05   -3.04   -3.04   -3.04   -3.03   -3.01   -2.97   -2.89   -2.78   -2.59   -2.27   -1.77   -1.11
0 16    -1.14   -1.14   -1.14   -1.13   -1.13   -1.13   -1.13   -1.13   -1.11   -1.09   -1.06   -1.01    -.91    -.75    -.51
0 17     -.32    -.32    -.32    -.32    -.32    -.32    -.32    -.32    -.32    -.31    -.31    -.30    -.27    -.23    -.17
0 18     -.08    -.08    -.08    -.08    -.08    -.08    -.08    -.08    -.08    -.08    -.08    -.08    -.07    -.06    -.05
0 19     -.02    -.02    -.02    -.02    -.02    -.02    -.02    -.02    -.02    -.02    -.02    -.02    -.02    -.02    -.01
0 20     -.01    -.01    -.01    -.01    -.01    -.01    -.01    -.01    -.01    -.01    -.01    -.01    -.00    -.00    -.00
0 21     -.00    -.00    -.00    -.00    -.00    -.00    -.00    -.00    -.00    -.00    -.00    -.00    -.00    -.00     .00
0 22      .00     .00     .00     .00     .00     .00     .00     .00     .00     .00     .00     .00     .00     .00     .00
0 23      .00     .00     .00     .00     .00     .00     .00     .00     .00     .00     .00     .00     .00     .00     .00
0 24      .00     .00     .00     .00     .00     .00     .00     .00     .00     .00     .00     .00     .00     .00     .00
0 25      .00     .00     .00     .00     .00     .00     .00     .00     .00     .00     .00     .00     .00     .00     .00
1                      HEAD IN LAYER  9 AT END OF TIME STEP 20 IN STRESS PERIOD  1
           -----------------------------------------------------------------------

          16      17      18      19      20      21      22      23      24      25
 ........................................................................................
0  1    -1.14    -.32    -.08    -.02    -.01    -.00     .00     .00     .00     .00
0  2    -1.14    -.32    -.08    -.02    -.01    -.00     .00     .00     .00     .00
0  3    -1.14    -.32    -.08    -.02    -.01    -.00     .00     .00     .00     .00
0  4    -1.14    -.32    -.08    -.02    -.01    -.00     .00     .00     .00     .00
0  5    -1.13    -.32    -.08    -.02    -.01    -.00     .00     .00     .00     .00
0  6    -1.13    -.32    -.08    -.02    -.01    -.00     .00     .00     .00     .00
0  7    -1.13    -.32    -.08    -.02    -.01    -.00     .00     .00     .00     .00
0  8    -1.13    -.32    -.08    -.02    -.01    -.00     .00     .00     .00     .00
0  9    -1.11    -.32    -.08    -.02    -.01    -.00     .00     .00     .00     .00
0 10    -1.09    -.31    -.08    -.02    -.01    -.00     .00     .00     .00     .00
0 11    -1.06    -.31    -.08    -.02    -.01    -.00     .00     .00     .00     .00
0 12    -1.01    -.30    -.08    -.02    -.01    -.00     .00     .00     .00     .00
0 13     -.91    -.27    -.07    -.02    -.00    -.00     .00     .00     .00     .00
0 14     -.75    -.23    -.06    -.02    -.00    -.00     .00     .00     .00     .00
0 15     -.51    -.17    -.05    -.01    -.00     .00     .00     .00     .00     .00
0 16     -.26    -.10    -.03    -.01    -.00     .00     .00     .00     .00     .00
0 17     -.10    -.04    -.01    -.00    -.00     .00     .00     .00     .00     .00
0 18     -.03    -.01    -.01    -.00     .00     .00     .00     .00     .00     .00
0 19     -.01    -.00    -.00     .00     .00     .00     .00     .00     .00     .00
0 20     -.00    -.00     .00     .00     .00     .00     .00     .00     .00     .00
0 21      .00     .00     .00     .00     .00     .00     .00     .00     .00     .00
0 22      .00     .00     .00     .00     .00     .00     .00     .00     .00     .00
0 23      .00     .00     .00     .00     .00     .00     .00     .00     .00     .00
0 24      .00     .00     .00     .00     .00     .00     .00     .00     .00     .00
0 25      .00     .00     .00     .00     .00     .00     .00     .00     .00     .00
1                      HEAD IN LAYER 10 AT END OF TIME STEP 20 IN STRESS PERIOD  1
           -----------------------------------------------------------------------

           1       2       3       4       5       6       7       8       9      10      11      12      13      14      15
 ................................................................................................................................
0  1  -123.87 -104.23  -90.57  -79.58  -69.06  -58.80  -49.18  -40.16  -31.97  -25.76  -20.44  -15.44  -10.67   -6.42   -3.11
0  2  -104.23  -97.65  -88.44  -78.84  -68.80  -58.70  -49.14  -40.15  -31.96  -25.76  -20.44  -15.44  -10.66   -6.42   -3.11
0  3   -90.57  -88.44  -83.59  -76.66  -67.93  -58.37  -49.01  -40.09  -31.94  -25.75  -20.43  -15.43  -10.66   -6.42   -3.11
0  4   -79.58  -78.84  -76.66  -72.55  -65.99  -57.57  -48.69  -39.96  -31.88  -25.72  -20.42  -15.43  -10.66   -6.42   -3.11
0  5   -69.06  -68.80  -67.93  -65.99  -62.06  -55.69  -47.88  -39.62  -31.74  -25.65  -20.38  -15.41  -10.65   -6.42   -3.10
0  6   -58.80  -58.70  -58.37  -57.57  -55.69  -51.84  -45.95  -38.75  -31.35  -25.45  -20.28  -15.35  -10.63   -6.41   -3.10
0  7   -49.18  -49.14  -49.01  -48.69  -47.88  -45.95  -42.29  -36.85  -30.45  -24.97  -20.02  -15.22  -10.56   -6.38   -3.09
0  8   -40.16  -40.15  -40.09  -39.96  -39.62  -38.75  -36.85  -33.43  -28.60  -23.93  -19.44  -14.92  -10.42   -6.32   -3.07
0  9   -31.97  -31.96  -31.94  -31.88  -31.74  -31.35  -30.45  -28.60  -25.50  -22.00  -18.29  -14.28  -10.11   -6.19   -3.03
0 10   -25.76  -25.76  -25.75  -25.72  -25.65  -25.45  -24.97  -23.93  -21.99  -19.52  -16.67  -13.32   -9.61   -5.97   -2.95
0 11   -20.44  -20.44  -20.43  -20.42  -20.38  -20.28  -20.02  -19.44  -18.29  -16.67  -14.63  -12.02   -8.90   -5.65   -2.84
0 12   -15.44  -15.44  -15.43  -15.43  -15.41  -15.35  -15.22  -14.92  -14.28  -13.32  -12.02  -10.19   -7.82   -5.12   -2.64
0 13   -10.66  -10.66  -10.66  -10.66  -10.65  -10.63  -10.56  -10.42  -10.11   -9.61   -8.90   -7.82   -6.27   -4.31   -2.32
0 14    -6.42   -6.42   -6.42   -6.42   -6.42   -6.41   -6.38   -6.32   -6.19   -5.97   -5.65   -5.12   -4.31   -3.14   -1.81
0 15    -3.11   -3.11   -3.11   -3.11   -3.10   -3.10   -3.09   -3.07   -3.03   -2.95   -2.84   -2.64   -2.32   -1.81   -1.13
0 16    -1.16   -1.16   -1.16   -1.16   -1.16   -1.16   -1.16   -1.15   -1.14   -1.12   -1.09   -1.03    -.93    -.77    -.53
0 17     -.33    -.33    -.33    -.33    -.33    -.33    -.33    -.33    -.33    -.32    -.31    -.30    -.28    -.24    -.18
0 18     -.09    -.09    -.09    -.09    -.09    -.09    -.09    -.09    -.09    -.08    -.08    -.08    -.07    -.07    -.05
0 19     -.02    -.02    -.02    -.02    -.02    -.02    -.02    -.02    -.02    -.02    -.02    -.02    -.02    -.02    -.01
0 20     -.01    -.01    -.01    -.01    -.01    -.01    -.01    -.01    -.01    -.01    -.01    -.01    -.00    -.00    -.00
0 21     -.00    -.00    -.00    -.00    -.00    -.00    -.00    -.00    -.00    -.00    -.00    -.00    -.00    -.00     .00
0 22      .00     .00     .00     .00     .00     .00     .00     .00     .00     .00     .00     .00     .00     .00     .00
0 23      .00     .00     .00     .00     .00     .00     .00     .00     .00     .00     .00     .00     .00     .00     .00
0 24      .00     .00     .00     .00     .00     .00     .00     .00     .00     .00     .00     .00     .00     .00     .00
0 25      .00     .00     .00     .00     .00     .00     .00     .00     .00     .00     .00     .00     .00     .00     .00
1                      HEAD IN LAYER 10 AT END OF TIME STEP 20 IN STRESS PERIOD  1
           -----------------------------------------------------------------------

          16      17      18      19      20      21      22      23      24      25
 ........................................................................................
0  1    -1.16    -.33    -.09    -.02    -.01    -.00     .00     .00     .00     .00
0  2    -1.16    -.33    -.09    -.02    -.01    -.00     .00     .00     .00     .00
0  3    -1.16    -.33    -.09    -.02    -.01    -.00     .00     .00     .00     .00
0  4    -1.16    -.33    -.09    -.02    -.01    -.00     .00     .00     .00     .00
0  5    -1.16    -.33    -.09    -.02    -.01    -.00     .00     .00     .00     .00
0  6    -1.16    -.33    -.09    -.02    -.01    -.00     .00     .00     .00     .00
0  7    -1.16    -.33    -.09    -.02    -.01    -.00     .00     .00     .00     .00
0  8    -1.15    -.33    -.09    -.02    -.01    -.00     .00     .00     .00     .00
0  9    -1.14    -.33    -.08    -.02    -.01    -.00     .00     .00     .00     .00
0 10    -1.12    -.32    -.08    -.02    -.01    -.00     .00     .00     .00     .00
0 11    -1.09    -.31    -.08    -.02    -.01    -.00     .00     .00     .00     .00
0 12    -1.03    -.30    -.08    -.02    -.01    -.00     .00     .00     .00     .00
0 13     -.93    -.28    -.07    -.02    -.00    -.00     .00     .00     .00     .00
0 14     -.77    -.24    -.07    -.02    -.00    -.00     .00     .00     .00     .00
0 15     -.53    -.18    -.05    -.01    -.00     .00     .00     .00     .00     .00
0 16     -.27    -.10    -.03    -.01    -.00     .00     .00     .00     .00     .00
0 17     -.10    -.04    -.01    -.00    -.00     .00     .00     .00     .00     .00
0 18     -.03    -.01    -.01    -.00     .00     .00     .00     .00     .00     .00
0 19     -.01    -.00    -.00     .00     .00     .00     .00     .00     .00     .00
0 20     -.00    -.00     .00     .00     .00     .00     .00     .00     .00     .00
0 21      .00     .00     .00     .00     .00     .00     .00     .00     .00     .00
0 22      .00     .00     .00     .00     .00     .00     .00     .00     .00     .00
0 23      .00     .00     .00     .00     .00     .00     .00     .00     .00     .00
0 24      .00     .00     .00     .00     .00     .00     .00     .00     .00     .00
0 25      .00     .00     .00     .00     .00     .00     .00     .00     .00     .00
0


                              VOLUMETRIC BUDGET FOR ENTIRE MODEL AT END OF TIME STEP 20 IN STRESS PERIOD  1
                              -----------------------------------------------------------------------------
0                   CUMULATIVE VOLUMES      L**3                                     RATES FOR THIS TIME STEP      L**3/T
                    ------------------                                               ------------------------

                          IN:                                                                    IN:
                          ---                                                                    ---
                            STORAGE =    38520.                                                    STORAGE =    1.5518    
                      CONSTANT HEAD =    173.69                                              CONSTANT HEAD =    .18707E-01
                              WELLS =    .00000                                                      WELLS =    .00000    
0                          TOTAL IN =    38693.                                                   TOTAL IN =    1.5705    
0                        OUT:                                                                   OUT:
                         ----                                                                   ----
                            STORAGE =    .00000                                                    STORAGE =    .00000    
                      CONSTANT HEAD =    .00000                                              CONSTANT HEAD =    .00000    
                              WELLS =    38697.                                                      WELLS =    1.5707    
0                         TOTAL OUT =    38697.                                                  TOTAL OUT =    1.5707    
0                          IN - OUT =   -3.2891                                                   IN - OUT =   -.26548E-03
0               PERCENT DISCREPANCY =                -.01                              PERCENT DISCREPANCY =                -.02



0


          TIME SUMMARY AT END OF TIME STEP 20 IN STRESS PERIOD  1
                               SECONDS        MINUTES         HOURS          DAYS           YEARS
                           ---------------------------------------------------------------------------
      TIME STEP LENGTH         7220.07        120.334        2.00557        .835656E-01    .228790E-03
    STRESS PERIOD TIME         24635.7        410.595        6.84325        .285135        .780658E-03
 TOTAL SIMULATION TIME         24635.7        410.595        6.84325        .285135        .780658E-03
1
    16 ITERATIONS FOR TIME STEP  21 IN STRESS PERIOD  1
0MAXIMUM HEAD CHANGE FOR EACH ITERATION:
0 HEAD CHANGE LAYER,ROW,COL HEAD CHANGE LAYER,ROW,COL HEAD CHANGE LAYER,ROW,COL HEAD CHANGE LAYER,ROW,COL HEAD CHANGE LAYER,ROW,COL
 ------------------------------------------------------------------------------------------------------------------------------------
   -2.814     (  4,  7,  7)  -2.081     (  5,  3,  4)  -2.607     (  5,  1,  1)  -.6220     ( 10,  1,  2)  -1.021     ( 10,  6,  1)
    .3246E-01 ( 10, 13,  1)   .8657E-01 (  9, 13,  1)   .7586E-01 ( 10, 11,  1)   .1060     ( 10,  1,  1)  -.1053E-01 (  9, 14,  4)
    .2971E-02 (  6, 13,  1)   .2206E-02 ( 10,  9,  7)   .5573E-02 (  9,  3, 12)   .4461E-02 ( 10,  4,  4)   .9650E-02 ( 10,  1,  1)
   -.1714E-03 ( 10, 12, 11)
0
0HEAD/DRAWDOWN PRINTOUT FLAG = 1     TOTAL BUDGET PRINTOUT FLAG = 1     CELL-BY-CELL FLOW TERM FLAG = 0
 REUSING PREVIOUS VALUES OF IOFLG
1                      HEAD IN LAYER  9 AT END OF TIME STEP 21 IN STRESS PERIOD  1
           -----------------------------------------------------------------------

           1       2       3       4       5       6       7       8       9      10      11      12      13      14      15
 ................................................................................................................................
0  1  -124.47 -104.90  -91.35  -80.50  -70.15  -60.05  -50.56  -41.63  -33.48  -27.28  -21.93  -16.86  -11.96   -7.50   -3.86
0  2  -104.90  -98.36  -89.24  -79.78  -69.90  -59.96  -50.53  -41.61  -33.47  -27.28  -21.93  -16.86  -11.96   -7.50   -3.86
0  3   -91.35  -89.24  -84.45  -77.62  -69.04  -59.64  -50.40  -41.56  -33.45  -27.26  -21.92  -16.86  -11.96   -7.49   -3.86
0  4   -80.50  -79.78  -77.62  -73.59  -67.13  -58.85  -50.08  -41.43  -33.40  -27.24  -21.91  -16.85  -11.95   -7.49   -3.86
0  5   -70.15  -69.90  -69.04  -67.13  -63.27  -56.99  -49.28  -41.09  -33.25  -27.16  -21.87  -16.83  -11.94   -7.49   -3.86
0  6   -60.05  -59.96  -59.64  -58.85  -56.99  -53.20  -47.37  -40.23  -32.87  -26.97  -21.77  -16.78  -11.92   -7.48   -3.86
0  7   -50.56  -50.53  -50.40  -50.08  -49.28  -47.37  -43.74  -38.34  -31.97  -26.49  -21.51  -16.64  -11.85   -7.45   -3.85
0  8   -41.63  -41.61  -41.56  -41.43  -41.09  -40.23  -38.34  -34.93  -30.12  -25.44  -20.93  -16.33  -11.70   -7.39   -3.83
0  9   -33.48  -33.47  -33.45  -33.40  -33.25  -32.87  -31.97  -30.12  -27.02  -23.50  -19.76  -15.68  -11.38   -7.25   -3.77
0 10   -27.28  -27.28  -27.26  -27.24  -27.16  -26.97  -26.49  -25.44  -23.50  -21.01  -18.11  -14.69  -10.86   -7.01   -3.69
0 11   -21.93  -21.93  -21.92  -21.91  -21.87  -21.77  -21.51  -20.93  -19.76  -18.11  -16.04  -13.35  -10.12   -6.66   -3.56
0 12   -16.86  -16.86  -16.86  -16.85  -16.83  -16.78  -16.64  -16.33  -15.68  -14.69  -13.35  -11.47   -8.98   -6.10   -3.34
0 13   -11.96  -11.96  -11.96  -11.95  -11.94  -11.92  -11.85  -11.70  -11.38  -10.86  -10.12   -8.98   -7.33   -5.20   -2.97
0 14    -7.50   -7.50   -7.49   -7.49   -7.49   -7.48   -7.45   -7.39   -7.24   -7.01   -6.66   -6.10   -5.20   -3.91   -2.37
0 15    -3.86   -3.86   -3.86   -3.86   -3.86   -3.86   -3.85   -3.82   -3.77   -3.69   -3.56   -3.34   -2.97   -2.37   -1.56
0 16    -1.58   -1.58   -1.58   -1.58   -1.58   -1.58   -1.58   -1.57   -1.56   -1.53   -1.49   -1.42   -1.30   -1.10    -.78
0 17     -.51    -.51    -.51    -.51    -.51    -.51    -.51    -.51    -.50    -.50    -.49    -.47    -.44    -.38    -.29
0 18     -.15    -.15    -.15    -.15    -.15    -.15    -.15    -.15    -.15    -.15    -.15    -.14    -.13    -.12    -.10
0 19     -.04    -.04    -.04    -.04    -.04    -.04    -.04    -.04    -.04    -.04    -.04    -.04    -.04    -.04    -.03
0 20     -.01    -.01    -.01    -.01    -.01    -.01    -.01    -.01    -.01    -.01    -.01    -.01    -.01    -.01    -.01
0 21     -.00    -.00    -.00    -.00    -.00    -.00    -.00    -.00    -.00    -.00    -.00    -.00    -.00    -.00    -.00
0 22      .00     .00     .00     .00     .00     .00     .00     .00     .00     .00     .00     .00     .00     .00     .00
0 23      .00     .00     .00     .00     .00     .00     .00     .00     .00     .00     .00     .00     .00     .00     .00
0 24      .00     .00     .00     .00     .00     .00     .00     .00     .00     .00     .00     .00     .00     .00     .00
0 25      .00     .00     .00     .00     .00     .00     .00     .00     .00     .00     .00     .00     .00     .00     .00
1                      HEAD IN LAYER  9 AT END OF TIME STEP 21 IN STRESS PERIOD  1
           -----------------------------------------------------------------------

          16      17      18      19      20      21      22      23      24      25
 ........................................................................................
0  1    -1.58    -.51    -.15    -.04    -.01    -.00     .00     .00     .00     .00
0  2    -1.58    -.51    -.15    -.04    -.01    -.00     .00     .00     .00     .00
0  3    -1.58    -.51    -.15    -.04    -.01    -.00     .00     .00     .00     .00
0  4    -1.58    -.51    -.15    -.04    -.01    -.00     .00     .00     .00     .00
0  5    -1.58    -.51    -.15    -.04    -.01    -.00     .00     .00     .00     .00
0  6    -1.58    -.51    -.15    -.04    -.01    -.00     .00     .00     .00     .00
0  7    -1.58    -.51    -.15    -.04    -.01    -.00     .00     .00     .00     .00
0  8    -1.57    -.51    -.15    -.04    -.01    -.00     .00     .00     .00     .00
0  9    -1.56    -.50    -.15    -.04    -.01    -.00     .00     .00     .00     .00
0 10    -1.53    -.50    -.15    -.04    -.01    -.00     .00     .00     .00     .00
0 11    -1.49    -.49    -.15    -.04    -.01    -.00     .00     .00     .00     .00
0 12    -1.42    -.47    -.14    -.04    -.01    -.00     .00     .00     .00     .00
0 13    -1.30    -.44    -.13    -.04    -.01    -.00     .00     .00     .00     .00
0 14    -1.10    -.38    -.12    -.04    -.01    -.00     .00     .00     .00     .00
0 15     -.78    -.29    -.10    -.03    -.01    -.00     .00     .00     .00     .00
0 16     -.43    -.18    -.06    -.02    -.01    -.00     .00     .00     .00     .00
0 17     -.18    -.08    -.03    -.01    -.00    -.00     .00     .00     .00     .00
0 18     -.06    -.03    -.01    -.00    -.00     .00     .00     .00     .00     .00
0 19     -.02    -.01    -.00    -.00     .00     .00     .00     .00     .00     .00
0 20     -.01    -.00    -.00     .00     .00     .00     .00     .00     .00     .00
0 21     -.00    -.00     .00     .00     .00     .00     .00     .00     .00     .00
0 22      .00     .00     .00     .00     .00     .00     .00     .00     .00     .00
0 23      .00     .00     .00     .00     .00     .00     .00     .00     .00     .00
0 24      .00     .00     .00     .00     .00     .00     .00     .00     .00     .00
0 25      .00     .00     .00     .00     .00     .00     .00     .00     .00     .00
1                      HEAD IN LAYER 10 AT END OF TIME STEP 21 IN STRESS PERIOD  1
           -----------------------------------------------------------------------

           1       2       3       4       5       6       7       8       9      10      11      12      13      14      15
 ................................................................................................................................
0  1  -125.84 -106.21  -92.55  -81.56  -71.04  -60.77  -51.14  -42.10  -33.87  -27.61  -22.20  -17.08  -12.12   -7.61   -3.93
0  2  -106.21  -99.63  -90.42  -80.82  -70.77  -60.67  -51.10  -42.09  -33.86  -27.60  -22.20  -17.08  -12.12   -7.61   -3.93
0  3   -92.55  -90.42  -85.56  -78.63  -69.91  -60.34  -50.98  -42.04  -33.84  -27.59  -22.20  -17.08  -12.12   -7.61   -3.93
0  4   -81.56  -80.82  -78.63  -74.53  -67.96  -59.54  -50.65  -41.91  -33.79  -27.57  -22.18  -17.07  -12.12   -7.60   -3.93
0  5   -71.04  -70.77  -69.91  -67.96  -64.03  -57.66  -49.84  -41.56  -33.64  -27.49  -22.14  -17.05  -12.11   -7.60   -3.92
0  6   -60.77  -60.67  -60.34  -59.54  -57.66  -53.81  -47.91  -40.69  -33.25  -27.29  -22.04  -16.99  -12.08   -7.59   -3.92
0  7   -51.14  -51.10  -50.98  -50.65  -49.84  -47.91  -44.24  -38.78  -32.34  -26.81  -21.78  -16.86  -12.02   -7.56   -3.91
0  8   -42.10  -42.09  -42.04  -41.91  -41.56  -40.69  -38.78  -35.34  -30.48  -25.75  -21.19  -16.54  -11.86   -7.50   -3.89
0  9   -33.87  -33.86  -33.84  -33.79  -33.64  -33.25  -32.34  -30.48  -27.34  -23.79  -20.01  -15.89  -11.54   -7.35   -3.84
0 10   -27.61  -27.60  -27.59  -27.57  -27.49  -27.29  -26.81  -25.75  -23.79  -21.27  -18.35  -14.89  -11.01   -7.12   -3.75
0 11   -22.20  -22.20  -22.20  -22.18  -22.14  -22.04  -21.78  -21.19  -20.01  -18.35  -16.25  -13.54  -10.26   -6.76   -3.62
0 12   -17.08  -17.08  -17.08  -17.07  -17.05  -16.99  -16.86  -16.54  -15.89  -14.89  -13.54  -11.63   -9.11   -6.19   -3.39
0 13   -12.12  -12.12  -12.12  -12.12  -12.11  -12.08  -12.02  -11.86  -11.54  -11.01  -10.26   -9.11   -7.44   -5.28   -3.01
0 14    -7.61   -7.61   -7.60   -7.60   -7.60   -7.59   -7.56   -7.49   -7.35   -7.12   -6.76   -6.19   -5.28   -3.97   -2.41
0 15    -3.93   -3.93   -3.93   -3.92   -3.92   -3.92   -3.91   -3.89   -3.84   -3.75   -3.62   -3.39   -3.01   -2.41   -1.59
0 16    -1.61   -1.61   -1.61   -1.61   -1.61   -1.61   -1.61   -1.60   -1.58   -1.56   -1.52   -1.45   -1.33   -1.12    -.80
0 17     -.52    -.52    -.52    -.52    -.52    -.52    -.52    -.52    -.51    -.51    -.50    -.48    -.45    -.39    -.30
0 18     -.15    -.15    -.15    -.15    -.15    -.15    -.15    -.15    -.15    -.15    -.15    -.14    -.14    -.12    -.10
0 19     -.04    -.04    -.04    -.04    -.04    -.04    -.04    -.04    -.04    -.04    -.04    -.04    -.04    -.04    -.03
0 20     -.01    -.01    -.01    -.01    -.01    -.01    -.01    -.01    -.01    -.01    -.01    -.01    -.01    -.01    -.01
0 21     -.00    -.00    -.00    -.00    -.00    -.00    -.00    -.00    -.00    -.00    -.00    -.00    -.00    -.00    -.00
0 22     -.00    -.00    -.00    -.00    -.00    -.00    -.00    -.00    -.00     .00     .00     .00     .00     .00     .00
0 23      .00     .00     .00     .00     .00     .00     .00     .00     .00     .00     .00     .00     .00     .00     .00
0 24      .00     .00     .00     .00     .00     .00     .00     .00     .00     .00     .00     .00     .00     .00     .00
0 25      .00     .00     .00     .00     .00     .00     .00     .00     .00     .00     .00     .00     .00     .00     .00
1                      HEAD IN LAYER 10 AT END OF TIME STEP 21 IN STRESS PERIOD  1
           -----------------------------------------------------------------------

          16      17      18      19      20      21      22      23      24      25
 ........................................................................................
0  1    -1.61    -.52    -.15    -.04    -.01    -.00    -.00     .00     .00     .00
0  2    -1.61    -.52    -.15    -.04    -.01    -.00    -.00     .00     .00     .00
0  3    -1.61    -.52    -.15    -.04    -.01    -.00    -.00     .00     .00     .00
0  4    -1.61    -.52    -.15    -.04    -.01    -.00    -.00     .00     .00     .00
0  5    -1.61    -.52    -.15    -.04    -.01    -.00    -.00     .00     .00     .00
0  6    -1.61    -.52    -.15    -.04    -.01    -.00    -.00     .00     .00     .00
0  7    -1.61    -.52    -.15    -.04    -.01    -.00    -.00     .00     .00     .00
0  8    -1.60    -.52    -.15    -.04    -.01    -.00    -.00     .00     .00     .00
0  9    -1.58    -.51    -.15    -.04    -.01    -.00     .00     .00     .00     .00
0 10    -1.56    -.51    -.15    -.04    -.01    -.00     .00     .00     .00     .00
0 11    -1.52    -.50    -.15    -.04    -.01    -.00     .00     .00     .00     .00
0 12    -1.45    -.48    -.14    -.04    -.01    -.00     .00     .00     .00     .00
0 13    -1.33    -.45    -.14    -.04    -.01    -.00     .00     .00     .00     .00
0 14    -1.12    -.39    -.12    -.04    -.01    -.00     .00     .00     .00     .00
0 15     -.80    -.30    -.10    -.03    -.01    -.00     .00     .00     .00     .00
0 16     -.44    -.18    -.06    -.02    -.01    -.00     .00     .00     .00     .00
0 17     -.18    -.08    -.03    -.01    -.00    -.00     .00     .00     .00     .00
0 18     -.06    -.03    -.01    -.00    -.00     .00     .00     .00     .00     .00
0 19     -.02    -.01    -.00    -.00     .00     .00     .00     .00     .00     .00
0 20     -.01    -.00    -.00     .00     .00     .00     .00     .00     .00     .00
0 21     -.00    -.00     .00     .00     .00     .00     .00     .00     .00     .00
0 22      .00     .00     .00     .00     .00     .00     .00     .00     .00     .00
0 23      .00     .00     .00     .00     .00     .00     .00     .00     .00     .00
0 24      .00     .00     .00     .00     .00     .00     .00     .00     .00     .00
0 25      .00     .00     .00     .00     .00     .00     .00     .00     .00     .00
0


                              VOLUMETRIC BUDGET FOR ENTIRE MODEL AT END OF TIME STEP 21 IN STRESS PERIOD  1
                              -----------------------------------------------------------------------------
0                   CUMULATIVE VOLUMES      L**3                                     RATES FOR THIS TIME STEP      L**3/T
                    ------------------                                               ------------------------

                          IN:                                                                    IN:
                          ---                                                                    ---
                            STORAGE =    54053.                                                    STORAGE =    1.5215    
                      CONSTANT HEAD =    672.40                                              CONSTANT HEAD =    .48849E-01
                              WELLS =    .00000                                                      WELLS =    .00000    
0                          TOTAL IN =    54725.                                                   TOTAL IN =    1.5703    
0                        OUT:                                                                   OUT:
                         ----                                                                   ----
                            STORAGE =    .00000                                                    STORAGE =    .00000    
                      CONSTANT HEAD =    .00000                                              CONSTANT HEAD =    .00000    
                              WELLS =    54733.                                                      WELLS =    1.5707    
0                         TOTAL OUT =    54733.                                                  TOTAL OUT =    1.5707    
0                          IN - OUT =   -7.5742                                                   IN - OUT =   -.41997E-03
0               PERCENT DISCREPANCY =                -.01                              PERCENT DISCREPANCY =                -.03



0


          TIME SUMMARY AT END OF TIME STEP 21 IN STRESS PERIOD  1
                               SECONDS        MINUTES         HOURS          DAYS           YEARS
                           ---------------------------------------------------------------------------
      TIME STEP LENGTH         10209.2        170.153        2.83588        .118162        .323509E-03
    STRESS PERIOD TIME         34844.9        580.748        9.67913        .403297        .110417E-02
 TOTAL SIMULATION TIME         34844.9        580.748        9.67913        .403297        .110417E-02
1
    16 ITERATIONS FOR TIME STEP  22 IN STRESS PERIOD  1
0MAXIMUM HEAD CHANGE FOR EACH ITERATION:
0 HEAD CHANGE LAYER,ROW,COL HEAD CHANGE LAYER,ROW,COL HEAD CHANGE LAYER,ROW,COL HEAD CHANGE LAYER,ROW,COL HEAD CHANGE LAYER,ROW,COL
 ------------------------------------------------------------------------------------------------------------------------------------
   -2.752     (  4,  7,  7)  -1.970     (  4,  3,  4)  -2.721     (  4,  1,  1)  -.6431     ( 10,  1,  2)  -1.078     ( 10,  6,  1)
    .3224E-01 ( 10, 13,  1)   .8863E-01 (  9, 13,  1)   .8058E-01 ( 10, 12,  1)   .1496     ( 10,  1,  1)  -.1257E-01 (  9, 14,  4)
    .3380E-02 (  6, 13,  1)   .2824E-02 (  6, 13,  1)   .7219E-02 (  9,  2, 12)   .5268E-02 ( 10,  3,  3)   .1292E-01 ( 10,  1,  1)
   -.2000E-03 ( 10, 12, 12)
0
0HEAD/DRAWDOWN PRINTOUT FLAG = 1     TOTAL BUDGET PRINTOUT FLAG = 1     CELL-BY-CELL FLOW TERM FLAG = 0
 REUSING PREVIOUS VALUES OF IOFLG
1                      HEAD IN LAYER  9 AT END OF TIME STEP 22 IN STRESS PERIOD  1
           -----------------------------------------------------------------------

           1       2       3       4       5       6       7       8       9      10      11      12      13      14      15
 ................................................................................................................................
0  1  -126.49 -106.93  -93.38  -82.53  -72.18  -62.07  -52.57  -43.61  -35.41  -29.15  -23.73  -18.54  -13.47   -8.75   -4.77
0  2  -106.93 -100.39  -91.27  -81.80  -71.92  -61.98  -52.53  -43.59  -35.41  -29.15  -23.73  -18.54  -13.47   -8.75   -4.77
0  3   -93.38  -91.27  -86.48  -79.65  -71.07  -61.65  -52.41  -43.54  -35.38  -29.14  -23.72  -18.54  -13.47   -8.75   -4.77
0  4   -82.53  -81.80  -79.65  -75.61  -69.15  -60.86  -52.09  -43.41  -35.33  -29.11  -23.71  -18.53  -13.46   -8.75   -4.77
0  5   -72.18  -71.92  -71.07  -69.15  -65.29  -59.01  -51.28  -43.07  -35.18  -29.04  -23.67  -18.51  -13.45   -8.74   -4.77
0  6   -62.07  -61.98  -61.65  -60.86  -59.01  -55.21  -49.37  -42.20  -34.80  -28.84  -23.56  -18.46  -13.43   -8.73   -4.77
0  7   -52.57  -52.53  -52.41  -52.09  -51.28  -49.37  -45.73  -40.30  -33.89  -28.35  -23.30  -18.32  -13.36   -8.70   -4.76
0  8   -43.61  -43.59  -43.54  -43.41  -43.07  -42.20  -40.30  -36.88  -32.02  -27.30  -22.70  -18.00  -13.20   -8.63   -4.73
0  9   -35.41  -35.41  -35.38  -35.33  -35.18  -34.80  -33.89  -32.02  -28.89  -25.32  -21.52  -17.33  -12.86   -8.48   -4.67
0 10   -29.15  -29.15  -29.14  -29.11  -29.04  -28.84  -28.35  -27.30  -25.32  -22.79  -19.83  -16.31  -12.32   -8.23   -4.58
0 11   -23.73  -23.73  -23.72  -23.71  -23.67  -23.56  -23.30  -22.70  -21.52  -19.83  -17.69  -14.92  -11.54   -7.85   -4.43
0 12   -18.54  -18.54  -18.54  -18.53  -18.51  -18.46  -18.32  -18.00  -17.33  -16.31  -14.92  -12.96  -10.33   -7.24   -4.18
0 13   -13.47  -13.47  -13.47  -13.46  -13.45  -13.43  -13.36  -13.20  -12.86  -12.32  -11.54  -10.33   -8.57   -6.26   -3.75
0 14    -8.75   -8.75   -8.75   -8.75   -8.74   -8.73   -8.70   -8.63   -8.48   -8.23   -7.85   -7.24   -6.26   -4.83   -3.06
0 15    -4.77   -4.77   -4.77   -4.77   -4.77   -4.77   -4.76   -4.73   -4.67   -4.58   -4.43   -4.18   -3.75   -3.06   -2.10
0 16    -2.12   -2.12   -2.12   -2.12   -2.12   -2.12   -2.12   -2.11   -2.09   -2.06   -2.01   -1.93   -1.78   -1.53   -1.13
0 17     -.76    -.76    -.76    -.76    -.76    -.76    -.76    -.76    -.75    -.74    -.73    -.71    -.67    -.59    -.46
0 18     -.25    -.25    -.25    -.25    -.25    -.25    -.25    -.25    -.25    -.25    -.24    -.24    -.23    -.21    -.17
0 19     -.08    -.08    -.08    -.08    -.08    -.08    -.08    -.08    -.08    -.08    -.08    -.08    -.08    -.07    -.06
0 20     -.03    -.03    -.03    -.03    -.03    -.03    -.03    -.03    -.03    -.03    -.03    -.03    -.02    -.02    -.02
0 21     -.01    -.01    -.01    -.01    -.01    -.01    -.01    -.01    -.01    -.01    -.01    -.01    -.01    -.01    -.01
0 22     -.00    -.00    -.00    -.00    -.00    -.00    -.00    -.00    -.00    -.00    -.00    -.00    -.00    -.00    -.00
0 23      .00     .00     .00     .00     .00     .00     .00     .00     .00     .00     .00     .00     .00     .00     .00
0 24      .00     .00     .00     .00     .00     .00     .00     .00     .00     .00     .00     .00     .00     .00     .00
0 25      .00     .00     .00     .00     .00     .00     .00     .00     .00     .00     .00     .00     .00     .00     .00
1                      HEAD IN LAYER  9 AT END OF TIME STEP 22 IN STRESS PERIOD  1
           -----------------------------------------------------------------------

          16      17      18      19      20      21      22      23      24      25
 ........................................................................................
0  1    -2.12    -.76    -.25    -.08    -.03    -.01    -.00     .00     .00     .00
0  2    -2.12    -.76    -.25    -.08    -.03    -.01    -.00     .00     .00     .00
0  3    -2.12    -.76    -.25    -.08    -.03    -.01    -.00     .00     .00     .00
0  4    -2.12    -.76    -.25    -.08    -.03    -.01    -.00     .00     .00     .00
0  5    -2.12    -.76    -.25    -.08    -.03    -.01    -.00     .00     .00     .00
0  6    -2.12    -.76    -.25    -.08    -.03    -.01    -.00     .00     .00     .00
0  7    -2.12    -.76    -.25    -.08    -.03    -.01    -.00     .00     .00     .00
0  8    -2.11    -.76    -.25    -.08    -.03    -.01    -.00     .00     .00     .00
0  9    -2.09    -.75    -.25    -.08    -.03    -.01    -.00     .00     .00     .00
0 10    -2.06    -.74    -.25    -.08    -.03    -.01    -.00     .00     .00     .00
0 11    -2.01    -.73    -.24    -.08    -.03    -.01    -.00     .00     .00     .00
0 12    -1.93    -.71    -.24    -.08    -.03    -.01    -.00     .00     .00     .00
0 13    -1.78    -.67    -.23    -.08    -.02    -.01    -.00     .00     .00     .00
0 14    -1.53    -.59    -.21    -.07    -.02    -.01    -.00     .00     .00     .00
0 15    -1.13    -.46    -.17    -.06    -.02    -.01    -.00     .00     .00     .00
0 16     -.66    -.30    -.12    -.04    -.01    -.01    -.00     .00     .00     .00
0 17     -.30    -.15    -.06    -.02    -.01    -.00    -.00     .00     .00     .00
0 18     -.12    -.06    -.03    -.01    -.00    -.00     .00     .00     .00     .00
0 19     -.04    -.02    -.01    -.01    -.00     .00     .00     .00     .00     .00
0 20     -.01    -.01    -.00    -.00     .00     .00     .00     .00     .00     .00
0 21     -.01    -.00    -.00     .00     .00     .00     .00     .00     .00     .00
0 22     -.00    -.00     .00     .00     .00     .00     .00     .00     .00     .00
0 23      .00     .00     .00     .00     .00     .00     .00     .00     .00     .00
0 24      .00     .00     .00     .00     .00     .00     .00     .00     .00     .00
0 25      .00     .00     .00     .00     .00     .00     .00     .00     .00     .00
1                      HEAD IN LAYER 10 AT END OF TIME STEP 22 IN STRESS PERIOD  1
           -----------------------------------------------------------------------

           1       2       3       4       5       6       7       8       9      10      11      12      13      14      15
 ................................................................................................................................
0  1  -127.79 -108.16  -94.49  -83.50  -72.98  -62.71  -53.08  -44.02  -35.76  -29.44  -23.97  -18.74  -13.62   -8.86   -4.84
0  2  -108.16 -101.57  -92.36  -82.77  -72.72  -62.61  -53.04  -44.01  -35.75  -29.44  -23.97  -18.74  -13.62   -8.86   -4.84
0  3   -94.49  -92.36  -87.51  -80.58  -71.85  -62.28  -52.91  -43.96  -35.73  -29.43  -23.96  -18.74  -13.62   -8.85   -4.84
0  4   -83.50  -82.77  -80.58  -76.47  -69.91  -61.48  -52.59  -43.82  -35.67  -29.40  -23.95  -18.73  -13.61   -8.85   -4.83
0  5   -72.98  -72.72  -71.85  -69.91  -65.98  -59.60  -51.77  -43.48  -35.52  -29.33  -23.91  -18.71  -13.60   -8.85   -4.83
0  6   -62.71  -62.61  -62.28  -61.48  -59.60  -55.75  -49.84  -42.61  -35.14  -29.13  -23.80  -18.65  -13.58   -8.84   -4.83
0  7   -53.08  -53.04  -52.91  -52.59  -51.77  -49.84  -46.16  -40.69  -34.22  -28.64  -23.54  -18.51  -13.51   -8.81   -4.82
0  8   -44.02  -44.01  -43.95  -43.82  -43.48  -42.61  -40.69  -37.23  -32.34  -27.57  -22.94  -18.19  -13.35   -8.74   -4.79
0  9   -35.76  -35.75  -35.73  -35.67  -35.52  -35.14  -34.22  -32.34  -29.18  -25.58  -21.74  -17.52  -13.01   -8.58   -4.73
0 10   -29.44  -29.44  -29.43  -29.40  -29.33  -29.13  -28.64  -27.57  -25.58  -23.02  -20.04  -16.49  -12.46   -8.33   -4.64
0 11   -23.97  -23.97  -23.96  -23.95  -23.91  -23.80  -23.54  -22.94  -21.74  -20.04  -17.89  -15.09  -11.67   -7.95   -4.49
0 12   -18.74  -18.74  -18.74  -18.73  -18.71  -18.65  -18.51  -18.19  -17.52  -16.49  -15.09  -13.10  -10.46   -7.33   -4.23
0 13   -13.62  -13.62  -13.62  -13.61  -13.60  -13.58  -13.51  -13.35  -13.01  -12.46  -11.67  -10.45   -8.68   -6.34   -3.81
0 14    -8.86   -8.85   -8.85   -8.85   -8.85   -8.84   -8.81   -8.74   -8.58   -8.33   -7.95   -7.33   -6.34   -4.89   -3.11
0 15    -4.84   -4.83   -4.83   -4.83   -4.83   -4.83   -4.82   -4.79   -4.73   -4.64   -4.49   -4.23   -3.80   -3.11   -2.13
0 16    -2.15   -2.15   -2.15   -2.15   -2.15   -2.15   -2.15   -2.14   -2.12   -2.09   -2.04   -1.96   -1.81   -1.55   -1.14
0 17     -.77    -.77    -.77    -.77    -.77    -.77    -.77    -.77    -.76    -.76    -.74    -.72    -.68    -.60    -.47
0 18     -.26    -.26    -.26    -.26    -.26    -.26    -.26    -.26    -.25    -.25    -.25    -.24    -.23    -.21    -.17
0 19     -.08    -.08    -.08    -.08    -.08    -.08    -.08    -.08    -.08    -.08    -.08    -.08    -.08    -.07    -.06
0 20     -.03    -.03    -.03    -.03    -.03    -.03    -.03    -.03    -.03    -.03    -.03    -.03    -.03    -.02    -.02
0 21     -.01    -.01    -.01    -.01    -.01    -.01    -.01    -.01    -.01    -.01    -.01    -.01    -.01    -.01    -.01
0 22     -.00    -.00    -.00    -.00    -.00    -.00    -.00    -.00    -.00    -.00    -.00    -.00    -.00    -.00    -.00
0 23      .00     .00     .00     .00     .00     .00     .00     .00     .00     .00     .00     .00     .00     .00     .00
0 24      .00     .00     .00     .00     .00     .00     .00     .00     .00     .00     .00     .00     .00     .00     .00
0 25      .00     .00     .00     .00     .00     .00     .00     .00     .00     .00     .00     .00     .00     .00     .00
1                      HEAD IN LAYER 10 AT END OF TIME STEP 22 IN STRESS PERIOD  1
           -----------------------------------------------------------------------

          16      17      18      19      20      21      22      23      24      25
 ........................................................................................
0  1    -2.15    -.77    -.26    -.08    -.03    -.01    -.00     .00     .00     .00
0  2    -2.15    -.77    -.26    -.08    -.03    -.01    -.00     .00     .00     .00
0  3    -2.15    -.77    -.26    -.08    -.03    -.01    -.00     .00     .00     .00
0  4    -2.15    -.77    -.26    -.08    -.03    -.01    -.00     .00     .00     .00
0  5    -2.15    -.77    -.26    -.08    -.03    -.01    -.00     .00     .00     .00
0  6    -2.15    -.77    -.26    -.08    -.03    -.01    -.00     .00     .00     .00
0  7    -2.15    -.77    -.26    -.08    -.03    -.01    -.00     .00     .00     .00
0  8    -2.14    -.77    -.26    -.08    -.03    -.01    -.00     .00     .00     .00
0  9    -2.12    -.76    -.25    -.08    -.03    -.01    -.00     .00     .00     .00
0 10    -2.09    -.76    -.25    -.08    -.03    -.01    -.00     .00     .00     .00
0 11    -2.04    -.74    -.25    -.08    -.03    -.01    -.00     .00     .00     .00
0 12    -1.96    -.72    -.24    -.08    -.03    -.01    -.00     .00     .00     .00
0 13    -1.81    -.68    -.23    -.08    -.03    -.01    -.00     .00     .00     .00
0 14    -1.55    -.60    -.21    -.07    -.02    -.01    -.00     .00     .00     .00
0 15    -1.14    -.47    -.17    -.06    -.02    -.01    -.00     .00     .00     .00
0 16     -.67    -.30    -.12    -.04    -.02    -.01    -.00     .00     .00     .00
0 17     -.30    -.15    -.06    -.02    -.01    -.00    -.00     .00     .00     .00
0 18     -.12    -.06    -.03    -.01    -.00    -.00     .00     .00     .00     .00
0 19     -.04    -.02    -.01    -.01    -.00     .00     .00     .00     .00     .00
0 20     -.02    -.01    -.00    -.00    -.00     .00     .00     .00     .00     .00
0 21     -.01    -.00    -.00     .00     .00     .00     .00     .00     .00     .00
0 22     -.00    -.00     .00     .00     .00     .00     .00     .00     .00     .00
0 23      .00     .00     .00     .00     .00     .00     .00     .00     .00     .00
0 24      .00     .00     .00     .00     .00     .00     .00     .00     .00     .00
0 25      .00     .00     .00     .00     .00     .00     .00     .00     .00     .00
0


                              VOLUMETRIC BUDGET FOR ENTIRE MODEL AT END OF TIME STEP 22 IN STRESS PERIOD  1
                              -----------------------------------------------------------------------------
0                   CUMULATIVE VOLUMES      L**3                                     RATES FOR THIS TIME STEP      L**3/T
                    ------------------                                               ------------------------

                          IN:                                                                    IN:
                          ---                                                                    ---
                            STORAGE =    75136.                                                    STORAGE =    1.4605    
                      CONSTANT HEAD =    2255.3                                              CONSTANT HEAD =    .10965    
                              WELLS =    .00000                                                      WELLS =    .00000    
0                          TOTAL IN =    77391.                                                   TOTAL IN =    1.5701    
0                        OUT:                                                                   OUT:
                         ----                                                                   ----
                            STORAGE =    .00000                                                    STORAGE =    .00000    
                      CONSTANT HEAD =    .00000                                              CONSTANT HEAD =    .00000    
                              WELLS =    77408.                                                      WELLS =    1.5707    
0                         TOTAL OUT =    77408.                                                  TOTAL OUT =    1.5707    
0                          IN - OUT =   -16.539                                                   IN - OUT =   -.62120E-03
0               PERCENT DISCREPANCY =                -.02                              PERCENT DISCREPANCY =                -.04



0


          TIME SUMMARY AT END OF TIME STEP 22 IN STRESS PERIOD  1
                               SECONDS        MINUTES         HOURS          DAYS           YEARS
                           ---------------------------------------------------------------------------
      TIME STEP LENGTH         14435.8        240.596        4.00994        .167081        .457442E-03
    STRESS PERIOD TIME         49280.6        821.344        13.6891        .570378        .156161E-02
 TOTAL SIMULATION TIME         49280.6        821.344        13.6891        .570378        .156161E-02
1
    16 ITERATIONS FOR TIME STEP  23 IN STRESS PERIOD  1
0MAXIMUM HEAD CHANGE FOR EACH ITERATION:
0 HEAD CHANGE LAYER,ROW,COL HEAD CHANGE LAYER,ROW,COL HEAD CHANGE LAYER,ROW,COL HEAD CHANGE LAYER,ROW,COL HEAD CHANGE LAYER,ROW,COL
 ------------------------------------------------------------------------------------------------------------------------------------
   -2.473     (  4,  8,  8)  -1.733     (  4,  3,  5)  -2.737     (  4,  1,  1)  -.6686     ( 10,  1,  3)  -1.125     ( 10,  5,  1)
    .3187E-01 ( 10, 13,  1)   .9006E-01 (  9, 13,  1)   .8632E-01 ( 10, 12,  1)   .2038     ( 10,  1,  1)  -.1472E-01 (  9, 14,  5)
    .3800E-02 (  6, 13,  1)   .3581E-02 (  5, 13,  2)   .8832E-02 (  9,  2, 12)   .6151E-02 ( 10,  2,  3)   .1646E-01 ( 10,  5,  1)
   -.2290E-03 ( 10, 12, 12)
0
0HEAD/DRAWDOWN PRINTOUT FLAG = 1     TOTAL BUDGET PRINTOUT FLAG = 1     CELL-BY-CELL FLOW TERM FLAG = 0
 REUSING PREVIOUS VALUES OF IOFLG
1                      HEAD IN LAYER  9 AT END OF TIME STEP 23 IN STRESS PERIOD  1
           -----------------------------------------------------------------------

           1       2       3       4       5       6       7       8       9      10      11      12      13      14      15
 ................................................................................................................................
0  1  -128.46 -108.89  -95.34  -84.49  -74.14  -64.03  -54.52  -45.54  -37.31  -31.00  -25.51  -20.23  -15.00  -10.06   -5.76
0  2  -108.89 -102.35  -93.23  -83.77  -73.88  -63.94  -54.48  -45.52  -37.30  -31.00  -25.51  -20.22  -15.00  -10.06   -5.76
0  3   -95.34  -93.23  -88.44  -81.61  -73.03  -63.61  -54.35  -45.47  -37.28  -30.98  -25.50  -20.22  -15.00  -10.06   -5.76
0  4   -84.49  -83.77  -81.61  -77.57  -71.12  -62.82  -54.04  -45.34  -37.22  -30.96  -25.48  -20.21  -15.00  -10.05   -5.76
0  5   -74.14  -73.88  -73.03  -71.12  -67.25  -60.96  -53.23  -45.00  -37.08  -30.88  -25.44  -20.19  -14.98  -10.05   -5.76
0  6   -64.03  -63.94  -63.61  -62.82  -60.96  -57.16  -51.31  -44.13  -36.69  -30.68  -25.34  -20.14  -14.96  -10.04   -5.75
0  7   -54.52  -54.48  -54.35  -54.04  -53.23  -51.31  -47.67  -42.22  -35.77  -30.19  -25.07  -19.99  -14.89  -10.01   -5.74
0  8   -45.54  -45.52  -45.47  -45.34  -45.00  -44.13  -42.22  -38.78  -33.90  -29.12  -24.47  -19.67  -14.72   -9.93   -5.71
0  9   -37.31  -37.30  -37.28  -37.22  -37.08  -36.69  -35.77  -33.90  -30.73  -27.13  -23.26  -18.98  -14.37   -9.77   -5.65
0 10   -31.00  -31.00  -30.98  -30.96  -30.88  -30.68  -30.19  -29.12  -27.13  -24.55  -21.54  -17.93  -13.81   -9.50   -5.55
0 11   -25.51  -25.51  -25.50  -25.48  -25.44  -25.34  -25.07  -24.47  -23.26  -21.54  -19.36  -16.50  -12.99   -9.10   -5.38
0 12   -20.23  -20.22  -20.22  -20.21  -20.19  -20.14  -19.99  -19.67  -18.98  -17.93  -16.50  -14.47  -11.73   -8.45   -5.10
0 13   -15.00  -15.00  -15.00  -14.99  -14.98  -14.96  -14.89  -14.72  -14.37  -13.81  -12.99  -11.73   -9.87   -7.39   -4.63
0 14   -10.06  -10.06  -10.06  -10.05  -10.05  -10.04  -10.01   -9.93   -9.77   -9.50   -9.10   -8.45   -7.39   -5.82   -3.85
0 15    -5.76   -5.76   -5.76   -5.76   -5.76   -5.75   -5.74   -5.71   -5.65   -5.54   -5.38   -5.10   -4.63   -3.85   -2.73
0 16    -2.75   -2.75   -2.75   -2.75   -2.75   -2.75   -2.74   -2.73   -2.71   -2.68   -2.62   -2.52   -2.35   -2.04   -1.56
0 17    -1.08   -1.08   -1.08   -1.08   -1.08   -1.08   -1.08   -1.08   -1.07   -1.06   -1.05   -1.02    -.96    -.87    -.70
0 18     -.40    -.40    -.40    -.40    -.40    -.40    -.40    -.40    -.40    -.39    -.39    -.38    -.36    -.33    -.28
0 19     -.15    -.15    -.15    -.15    -.15    -.15    -.15    -.15    -.14    -.14    -.14    -.14    -.13    -.13    -.11
0 20     -.05    -.05    -.05    -.05    -.05    -.05    -.05    -.05    -.05    -.05    -.05    -.05    -.05    -.05    -.04
0 21     -.02    -.02    -.02    -.02    -.02    -.02    -.02    -.02    -.02    -.02    -.02    -.02    -.02    -.02    -.01
0 22     -.01    -.01    -.01    -.01    -.01    -.01    -.01    -.01    -.01    -.01    -.01    -.01    -.01    -.01    -.01
0 23     -.00    -.00    -.00    -.00    -.00    -.00    -.00    -.00    -.00    -.00    -.00    -.00    -.00    -.00    -.00
0 24      .00     .00     .00     .00     .00     .00     .00     .00     .00     .00     .00     .00     .00     .00     .00
0 25      .00     .00     .00     .00     .00     .00     .00     .00     .00     .00     .00     .00     .00     .00     .00
1                      HEAD IN LAYER  9 AT END OF TIME STEP 23 IN STRESS PERIOD  1
           -----------------------------------------------------------------------

          16      17      18      19      20      21      22      23      24      25
 ........................................................................................
0  1    -2.75   -1.08    -.40    -.15    -.05    -.02    -.01    -.00     .00     .00
0  2    -2.75   -1.08    -.40    -.15    -.05    -.02    -.01    -.00     .00     .00
0  3    -2.75   -1.08    -.40    -.15    -.05    -.02    -.01    -.00     .00     .00
0  4    -2.75   -1.08    -.40    -.15    -.05    -.02    -.01    -.00     .00     .00
0  5    -2.75   -1.08    -.40    -.15    -.05    -.02    -.01    -.00     .00     .00
0  6    -2.75   -1.08    -.40    -.15    -.05    -.02    -.01    -.00     .00     .00
0  7    -2.74   -1.08    -.40    -.15    -.05    -.02    -.01    -.00     .00     .00
0  8    -2.73   -1.08    -.40    -.15    -.05    -.02    -.01    -.00     .00     .00
0  9    -2.71   -1.07    -.40    -.14    -.05    -.02    -.01    -.00     .00     .00
0 10    -2.68   -1.06    -.39    -.14    -.05    -.02    -.01    -.00     .00     .00
0 11    -2.62   -1.05    -.39    -.14    -.05    -.02    -.01    -.00     .00     .00
0 12    -2.52   -1.02    -.38    -.14    -.05    -.02    -.01    -.00     .00     .00
0 13    -2.35    -.96    -.36    -.13    -.05    -.02    -.01    -.00     .00     .00
0 14    -2.04    -.87    -.33    -.13    -.05    -.02    -.01    -.00     .00     .00
0 15    -1.56    -.70    -.28    -.11    -.04    -.01    -.01    -.00     .00     .00
0 16     -.96    -.47    -.20    -.08    -.03    -.01    -.00    -.00     .00     .00
0 17     -.47    -.25    -.12    -.05    -.02    -.01    -.00    -.00     .00     .00
0 18     -.20    -.12    -.06    -.03    -.01    -.00    -.00     .00     .00     .00
0 19     -.08    -.05    -.03    -.01    -.01    -.00    -.00     .00     .00     .00
0 20     -.03    -.02    -.01    -.01    -.00    -.00     .00     .00     .00     .00
0 21     -.01    -.01    -.00    -.00    -.00     .00     .00     .00     .00     .00
0 22     -.00    -.00    -.00    -.00     .00     .00     .00     .00     .00     .00
0 23     -.00    -.00     .00     .00     .00     .00     .00     .00     .00     .00
0 24      .00     .00     .00     .00     .00     .00     .00     .00     .00     .00
0 25      .00     .00     .00     .00     .00     .00     .00     .00     .00     .00
1                      HEAD IN LAYER 10 AT END OF TIME STEP 23 IN STRESS PERIOD  1
           -----------------------------------------------------------------------

           1       2       3       4       5       6       7       8       9      10      11      12      13      14      15
 ................................................................................................................................
0  1  -129.69 -110.06  -96.39  -85.40  -74.88  -64.61  -54.97  -45.90  -37.61  -31.25  -25.72  -20.40  -15.14  -10.16   -5.82
0  2  -110.06 -103.48  -94.26  -84.67  -74.62  -64.51  -54.93  -45.89  -37.60  -31.25  -25.72  -20.40  -15.14  -10.16   -5.82
0  3   -96.39  -94.26  -89.41  -82.48  -73.75  -64.18  -54.80  -45.83  -37.58  -31.24  -25.72  -20.40  -15.14  -10.15   -5.82
0  4   -85.40  -84.67  -82.48  -78.37  -71.81  -63.38  -54.48  -45.70  -37.52  -31.21  -25.70  -20.39  -15.13  -10.15   -5.82
0  5   -74.88  -74.62  -73.75  -71.81  -67.88  -61.49  -53.66  -45.36  -37.38  -31.14  -25.66  -20.37  -15.12  -10.15   -5.82
0  6   -64.61  -64.51  -64.18  -63.38  -61.49  -57.64  -51.72  -44.48  -36.98  -30.93  -25.55  -20.31  -15.10  -10.14   -5.82
0  7   -54.97  -54.93  -54.80  -54.48  -53.66  -51.72  -48.05  -42.56  -36.06  -30.44  -25.28  -20.17  -15.02  -10.10   -5.80
0  8   -45.90  -45.88  -45.83  -45.70  -45.36  -44.48  -42.56  -39.09  -34.17  -29.36  -24.68  -19.84  -14.86  -10.03   -5.77
0  9   -37.61  -37.60  -37.58  -37.52  -37.37  -36.98  -36.06  -34.17  -30.99  -27.35  -23.46  -19.15  -14.51   -9.87   -5.71
0 10   -31.25  -31.25  -31.24  -31.21  -31.14  -30.93  -30.44  -29.36  -27.35  -24.76  -21.73  -18.09  -13.93   -9.60   -5.60
0 11   -25.72  -25.72  -25.72  -25.70  -25.66  -25.55  -25.28  -24.68  -23.46  -21.73  -19.53  -16.65  -13.11   -9.19   -5.44
0 12   -20.40  -20.40  -20.40  -20.39  -20.37  -20.31  -20.17  -19.84  -19.15  -18.09  -16.65  -14.60  -11.84   -8.53   -5.16
0 13   -15.14  -15.14  -15.14  -15.13  -15.12  -15.09  -15.02  -14.86  -14.51  -13.93  -13.11  -11.84   -9.97   -7.47   -4.68
0 14   -10.15  -10.15  -10.15  -10.15  -10.15  -10.13  -10.10  -10.03   -9.87   -9.60   -9.19   -8.53   -7.47   -5.88   -3.89
0 15    -5.82   -5.82   -5.82   -5.82   -5.82   -5.81   -5.80   -5.77   -5.71   -5.60   -5.44   -5.16   -4.68   -3.89   -2.76
0 16    -2.78   -2.78   -2.78   -2.78   -2.78   -2.78   -2.77   -2.76   -2.74   -2.71   -2.65   -2.55   -2.38   -2.07   -1.57
0 17    -1.10   -1.10   -1.10   -1.10   -1.10   -1.10   -1.10   -1.09   -1.09   -1.08   -1.06   -1.03    -.98    -.88    -.71
0 18     -.40    -.40    -.40    -.40    -.40    -.40    -.40    -.40    -.40    -.40    -.39    -.38    -.37    -.34    -.28
0 19     -.15    -.15    -.15    -.15    -.15    -.15    -.15    -.15    -.15    -.15    -.14    -.14    -.14    -.13    -.11
0 20     -.05    -.05    -.05    -.05    -.05    -.05    -.05    -.05    -.05    -.05    -.05    -.05    -.05    -.05    -.04
0 21     -.02    -.02    -.02    -.02    -.02    -.02    -.02    -.02    -.02    -.02    -.02    -.02    -.02    -.02    -.02
0 22     -.01    -.01    -.01    -.01    -.01    -.01    -.01    -.01    -.01    -.01    -.01    -.01    -.01    -.01    -.01
0 23     -.00    -.00    -.00    -.00    -.00    -.00    -.00    -.00    -.00    -.00    -.00    -.00    -.00    -.00    -.00
0 24      .00     .00     .00     .00     .00     .00     .00     .00     .00     .00     .00     .00     .00     .00     .00
0 25      .00     .00     .00     .00     .00     .00     .00     .00     .00     .00     .00     .00     .00     .00     .00
1                      HEAD IN LAYER 10 AT END OF TIME STEP 23 IN STRESS PERIOD  1
           -----------------------------------------------------------------------

          16      17      18      19      20      21      22      23      24      25
 ........................................................................................
0  1    -2.78   -1.10    -.41    -.15    -.05    -.02    -.01    -.00     .00     .00
0  2    -2.78   -1.10    -.41    -.15    -.05    -.02    -.01    -.00     .00     .00
0  3    -2.78   -1.10    -.41    -.15    -.05    -.02    -.01    -.00     .00     .00
0  4    -2.78   -1.10    -.41    -.15    -.05    -.02    -.01    -.00     .00     .00
0  5    -2.78   -1.10    -.40    -.15    -.05    -.02    -.01    -.00     .00     .00
0  6    -2.78   -1.10    -.40    -.15    -.05    -.02    -.01    -.00     .00     .00
0  7    -2.77   -1.10    -.40    -.15    -.05    -.02    -.01    -.00     .00     .00
0  8    -2.77   -1.09    -.40    -.15    -.05    -.02    -.01    -.00     .00     .00
0  9    -2.74   -1.09    -.40    -.15    -.05    -.02    -.01    -.00     .00     .00
0 10    -2.71   -1.08    -.40    -.15    -.05    -.02    -.01    -.00     .00     .00
0 11    -2.65   -1.06    -.39    -.14    -.05    -.02    -.01    -.00     .00     .00
0 12    -2.55   -1.03    -.38    -.14    -.05    -.02    -.01    -.00     .00     .00
0 13    -2.38    -.98    -.37    -.14    -.05    -.02    -.01    -.00     .00     .00
0 14    -2.07    -.88    -.34    -.13    -.05    -.02    -.01    -.00     .00     .00
0 15    -1.58    -.71    -.28    -.11    -.04    -.02    -.01    -.00     .00     .00
0 16     -.98    -.48    -.20    -.08    -.03    -.01    -.00    -.00     .00     .00
0 17     -.48    -.25    -.12    -.05    -.02    -.01    -.00    -.00     .00     .00
0 18     -.20    -.12    -.06    -.03    -.01    -.00    -.00     .00     .00     .00
0 19     -.08    -.05    -.03    -.01    -.01    -.00    -.00     .00     .00     .00
0 20     -.03    -.02    -.01    -.01    -.00    -.00     .00     .00     .00     .00
0 21     -.01    -.01    -.00    -.00    -.00     .00     .00     .00     .00     .00
0 22     -.00    -.00    -.00    -.00     .00     .00     .00     .00     .00     .00
0 23     -.00    -.00     .00     .00     .00     .00     .00     .00     .00     .00
0 24      .00     .00     .00     .00     .00     .00     .00     .00     .00     .00
0 25      .00     .00     .00     .00     .00     .00     .00     .00     .00     .00
0


                              VOLUMETRIC BUDGET FOR ENTIRE MODEL AT END OF TIME STEP 23 IN STRESS PERIOD  1
                              -----------------------------------------------------------------------------
0                   CUMULATIVE VOLUMES      L**3                                     RATES FOR THIS TIME STEP      L**3/T
                    ------------------                                               ------------------------

                          IN:                                                                    IN:
                          ---                                                                    ---
                            STORAGE =    .10282E+06                                                STORAGE =    1.3560    
                      CONSTANT HEAD =    6620.8                                              CONSTANT HEAD =    .21387    
                              WELLS =    .00000                                                      WELLS =    .00000    
0                          TOTAL IN =    .10944E+06                                               TOTAL IN =    1.5699    
0                        OUT:                                                                   OUT:
                         ----                                                                   ----
                            STORAGE =    .00000                                                    STORAGE =    .00000    
                      CONSTANT HEAD =    .00000                                              CONSTANT HEAD =    .00000    
                              WELLS =    .10947E+06                                                  WELLS =    1.5707    
0                         TOTAL OUT =    .10947E+06                                              TOTAL OUT =    1.5707    
0                          IN - OUT =   -33.742                                                   IN - OUT =   -.84293E-03
0               PERCENT DISCREPANCY =                -.03                              PERCENT DISCREPANCY =                -.05



0


          TIME SUMMARY AT END OF TIME STEP 23 IN STRESS PERIOD  1
                               SECONDS        MINUTES         HOURS          DAYS           YEARS
                           ---------------------------------------------------------------------------
      TIME STEP LENGTH         20412.2        340.203        5.67005        .236252        .646823E-03
    STRESS PERIOD TIME         69692.8        1161.55        19.3591        .806630        .220843E-02
 TOTAL SIMULATION TIME         69692.8        1161.55        19.3591        .806630        .220843E-02
1
    16 ITERATIONS FOR TIME STEP  24 IN STRESS PERIOD  1
0MAXIMUM HEAD CHANGE FOR EACH ITERATION:
0 HEAD CHANGE LAYER,ROW,COL HEAD CHANGE LAYER,ROW,COL HEAD CHANGE LAYER,ROW,COL HEAD CHANGE LAYER,ROW,COL HEAD CHANGE LAYER,ROW,COL
 ------------------------------------------------------------------------------------------------------------------------------------
   -2.061     (  4,  8,  8)  -1.448     (  4,  6,  4)  -2.466     (  4,  1,  1)  -.6854     ( 10,  1,  4)  -1.148     ( 10,  3,  1)
    .3088E-01 ( 10, 13,  1)   .8943E-01 (  9, 13,  1)   .9027E-01 ( 10, 12,  1)   .2626     ( 10,  1,  1)  -.1645E-01 (  9, 14,  6)
    .4163E-02 (  6, 13,  1)   .4304E-02 (  5, 13,  2)   .1028E-01 (  8,  3, 12)   .7119E-02 ( 10,  1,  3)   .2015E-01 ( 10,  5,  1)
   -.2561E-03 ( 10, 13, 12)
0
0HEAD/DRAWDOWN PRINTOUT FLAG = 1     TOTAL BUDGET PRINTOUT FLAG = 1     CELL-BY-CELL FLOW TERM FLAG = 0
 REUSING PREVIOUS VALUES OF IOFLG
1                      HEAD IN LAYER  9 AT END OF TIME STEP 24 IN STRESS PERIOD  1
           -----------------------------------------------------------------------

           1       2       3       4       5       6       7       8       9      10      11      12      13      14      15
 ................................................................................................................................
0  1  -130.32 -110.75  -97.20  -86.35  -76.00  -65.89  -56.37  -47.37  -39.12  -32.77  -27.23  -21.86  -16.52  -11.38   -6.80
0  2  -110.75 -104.22  -95.10  -85.63  -75.74  -65.79  -56.33  -47.36  -39.11  -32.77  -27.22  -21.86  -16.52  -11.38   -6.80
0  3   -97.20  -95.10  -90.30  -83.47  -74.89  -65.47  -56.21  -47.31  -39.09  -32.75  -27.22  -21.86  -16.51  -11.38   -6.80
0  4   -86.35  -85.63  -83.47  -79.43  -72.98  -64.68  -55.89  -47.18  -39.03  -32.73  -27.20  -21.85  -16.51  -11.38   -6.80
0  5   -76.00  -75.74  -74.89  -72.98  -69.11  -62.82  -55.08  -46.83  -38.88  -32.65  -27.16  -21.83  -16.50  -11.37   -6.80
0  6   -65.89  -65.79  -65.47  -64.68  -62.82  -59.01  -53.16  -45.96  -38.50  -32.45  -27.05  -21.77  -16.47  -11.36   -6.80
0  7   -56.37  -56.33  -56.20  -55.89  -55.08  -53.16  -49.51  -44.05  -37.58  -31.96  -26.78  -21.63  -16.40  -11.33   -6.78
0  8   -47.37  -47.36  -47.31  -47.18  -46.83  -45.96  -44.05  -40.60  -35.69  -30.88  -26.17  -21.30  -16.23  -11.25   -6.75
0  9   -39.12  -39.11  -39.09  -39.03  -38.88  -38.49  -37.58  -35.69  -32.50  -28.86  -24.95  -20.60  -15.87  -11.08   -6.68
0 10   -32.77  -32.77  -32.75  -32.73  -32.65  -32.45  -31.96  -30.88  -28.86  -26.26  -23.20  -19.53  -15.28  -10.80   -6.57
0 11   -27.22  -27.22  -27.22  -27.20  -27.16  -27.05  -26.78  -26.17  -24.95  -23.20  -20.98  -18.06  -14.44  -10.37   -6.39
0 12   -21.86  -21.86  -21.86  -21.85  -21.83  -21.77  -21.63  -21.29  -20.60  -19.52  -18.06  -15.96  -13.13   -9.68   -6.09
0 13   -16.51  -16.51  -16.51  -16.51  -16.50  -16.47  -16.40  -16.23  -15.87  -15.28  -14.44  -13.13  -11.18   -8.56   -5.57
0 14   -11.38  -11.38  -11.38  -11.37  -11.37  -11.36  -11.32  -11.25  -11.08  -10.80  -10.37   -9.68   -8.56   -6.87   -4.70
0 15    -6.80   -6.80   -6.80   -6.80   -6.80   -6.79   -6.78   -6.75   -6.68   -6.57   -6.39   -6.09   -5.57   -4.70   -3.44
0 16    -3.45   -3.45   -3.45   -3.45   -3.45   -3.45   -3.45   -3.43   -3.41   -3.37   -3.31   -3.19   -2.99   -2.64   -2.06
0 17    -1.48   -1.48   -1.48   -1.48   -1.48   -1.48   -1.48   -1.47   -1.47   -1.45   -1.43   -1.40   -1.33   -1.21   -1.00
0 18     -.60    -.60    -.60    -.60    -.60    -.60    -.60    -.60    -.59    -.59    -.58    -.57    -.55    -.51    -.43
0 19     -.24    -.24    -.24    -.24    -.24    -.24    -.24    -.24    -.24    -.24    -.24    -.23    -.22    -.21    -.18
0 20     -.10    -.10    -.10    -.10    -.10    -.10    -.10    -.10    -.10    -.09    -.09    -.09    -.09    -.09    -.08
0 21     -.04    -.04    -.04    -.04    -.04    -.04    -.04    -.04    -.04    -.04    -.04    -.04    -.04    -.03    -.03
0 22     -.01    -.01    -.01    -.01    -.01    -.01    -.01    -.01    -.01    -.01    -.01    -.01    -.01    -.01    -.01
0 23     -.01    -.01    -.01    -.01    -.01    -.01    -.01    -.01    -.01    -.01    -.01    -.01    -.01    -.01    -.00
0 24     -.00    -.00    -.00    -.00    -.00    -.00    -.00    -.00    -.00    -.00    -.00    -.00    -.00    -.00    -.00
0 25     -.00    -.00    -.00    -.00    -.00    -.00    -.00    -.00    -.00     .00     .00     .00     .00     .00     .00
1                      HEAD IN LAYER  9 AT END OF TIME STEP 24 IN STRESS PERIOD  1
           -----------------------------------------------------------------------

          16      17      18      19      20      21      22      23      24      25
 ........................................................................................
0  1    -3.45   -1.48    -.60    -.24    -.10    -.04    -.01    -.01    -.00    -.00
0  2    -3.45   -1.48    -.60    -.24    -.10    -.04    -.01    -.01    -.00    -.00
0  3    -3.45   -1.48    -.60    -.24    -.10    -.04    -.01    -.01    -.00    -.00
0  4    -3.45   -1.48    -.60    -.24    -.10    -.04    -.01    -.01    -.00    -.00
0  5    -3.45   -1.48    -.60    -.24    -.10    -.04    -.01    -.01    -.00    -.00
0  6    -3.45   -1.48    -.60    -.24    -.10    -.04    -.01    -.01    -.00    -.00
0  7    -3.45   -1.48    -.60    -.24    -.10    -.04    -.01    -.01    -.00    -.00
0  8    -3.44   -1.47    -.60    -.24    -.10    -.04    -.01    -.01    -.00    -.00
0  9    -3.41   -1.47    -.59    -.24    -.10    -.04    -.01    -.01    -.00    -.00
0 10    -3.37   -1.45    -.59    -.24    -.09    -.04    -.01    -.01    -.00     .00
0 11    -3.31   -1.43    -.58    -.24    -.09    -.04    -.01    -.01    -.00     .00
0 12    -3.19   -1.40    -.57    -.23    -.09    -.04    -.01    -.01    -.00     .00
0 13    -2.99   -1.33    -.55    -.22    -.09    -.04    -.01    -.01    -.00     .00
0 14    -2.64   -1.21    -.51    -.21    -.09    -.03    -.01    -.01    -.00     .00
0 15    -2.06   -1.00    -.44    -.18    -.08    -.03    -.01    -.00    -.00     .00
0 16    -1.34    -.70    -.32    -.14    -.06    -.03    -.01    -.00    -.00     .00
0 17     -.70    -.40    -.20    -.09    -.04    -.02    -.01    -.00    -.00     .00
0 18     -.32    -.20    -.11    -.05    -.02    -.01    -.00    -.00     .00     .00
0 19     -.14    -.09    -.05    -.03    -.01    -.01    -.00    -.00     .00     .00
0 20     -.06    -.04    -.02    -.01    -.01    -.00    -.00     .00     .00     .00
0 21     -.03    -.02    -.01    -.01    -.00    -.00     .00     .00     .00     .00
0 22     -.01    -.01    -.00    -.00    -.00     .00     .00     .00     .00     .00
0 23     -.00    -.00    -.00    -.00     .00     .00     .00     .00     .00     .00
0 24     -.00    -.00     .00     .00     .00     .00     .00     .00     .00     .00
0 25      .00     .00     .00     .00     .00     .00     .00     .00     .00     .00
1                      HEAD IN LAYER 10 AT END OF TIME STEP 24 IN STRESS PERIOD  1
           -----------------------------------------------------------------------

           1       2       3       4       5       6       7       8       9      10      11      12      13      14      15
 ................................................................................................................................
0  1  -131.50 -111.87  -98.21  -87.21  -76.69  -66.42  -56.77  -47.70  -39.38  -33.00  -27.42  -22.02  -16.64  -11.47   -6.86
0  2  -111.87 -105.29  -96.08  -86.48  -76.43  -66.32  -56.74  -47.68  -39.38  -32.99  -27.42  -22.02  -16.64  -11.47   -6.86
0  3   -98.21  -96.08  -91.22  -84.29  -75.56  -65.99  -56.61  -47.63  -39.35  -32.98  -27.41  -22.02  -16.64  -11.47   -6.86
0  4   -87.21  -86.48  -84.29  -80.19  -73.62  -65.19  -56.28  -47.50  -39.30  -32.95  -27.40  -22.01  -16.64  -11.47   -6.86
0  5   -76.69  -76.43  -75.56  -73.62  -69.69  -63.30  -55.47  -47.15  -39.15  -32.88  -27.36  -21.99  -16.63  -11.46   -6.86
0  6   -66.42  -66.32  -65.99  -65.19  -63.30  -59.45  -53.53  -46.27  -38.76  -32.67  -27.25  -21.93  -16.60  -11.45   -6.85
0  7   -56.77  -56.74  -56.61  -56.28  -55.47  -53.53  -49.85  -44.35  -37.83  -32.18  -26.97  -21.79  -16.52  -11.42   -6.84
0  8   -47.70  -47.68  -47.63  -47.50  -47.15  -46.27  -44.35  -40.87  -35.93  -31.09  -26.36  -21.45  -16.35  -11.34   -6.81
0  9   -39.38  -39.38  -39.35  -39.30  -39.15  -38.76  -37.83  -35.93  -32.73  -29.07  -25.13  -20.75  -15.99  -11.17   -6.74
0 10   -33.00  -32.99  -32.98  -32.95  -32.88  -32.67  -32.18  -31.09  -29.06  -26.44  -23.37  -19.67  -15.40  -10.89   -6.63
0 11   -27.42  -27.42  -27.41  -27.40  -27.35  -27.24  -26.97  -26.36  -25.13  -23.37  -21.13  -18.20  -14.55  -10.46   -6.45
0 12   -22.02  -22.02  -22.02  -22.01  -21.99  -21.93  -21.79  -21.45  -20.75  -19.67  -18.20  -16.09  -13.23   -9.76   -6.14
0 13   -16.64  -16.64  -16.64  -16.63  -16.62  -16.60  -16.52  -16.35  -15.99  -15.40  -14.55  -13.23  -11.27   -8.63   -5.62
0 14   -11.47  -11.47  -11.47  -11.47  -11.46  -11.45  -11.42  -11.34  -11.17  -10.88  -10.46   -9.76   -8.63   -6.93   -4.74
0 15    -6.86   -6.86   -6.86   -6.86   -6.86   -6.85   -6.84   -6.81   -6.74   -6.62   -6.45   -6.14   -5.61   -4.74   -3.47
0 16    -3.49   -3.49   -3.49   -3.49   -3.48   -3.48   -3.48   -3.47   -3.44   -3.40   -3.34   -3.22   -3.02   -2.66   -2.08
0 17    -1.49   -1.49   -1.49   -1.49   -1.49   -1.49   -1.49   -1.49   -1.48   -1.47   -1.45   -1.41   -1.34   -1.22   -1.01
0 18     -.60    -.60    -.60    -.60    -.60    -.60    -.60    -.60    -.60    -.60    -.59    -.58    -.56    -.51    -.44
0 19     -.24    -.24    -.24    -.24    -.24    -.24    -.24    -.24    -.24    -.24    -.24    -.23    -.23    -.21    -.19
0 20     -.10    -.10    -.10    -.10    -.10    -.10    -.10    -.10    -.10    -.10    -.10    -.09    -.09    -.09    -.08
0 21     -.04    -.04    -.04    -.04    -.04    -.04    -.04    -.04    -.04    -.04    -.04    -.04    -.04    -.03    -.03
0 22     -.02    -.02    -.02    -.02    -.02    -.02    -.02    -.02    -.01    -.01    -.01    -.01    -.01    -.01    -.01
0 23     -.01    -.01    -.01    -.01    -.01    -.01    -.01    -.01    -.01    -.01    -.01    -.01    -.01    -.01    -.00
0 24     -.00    -.00    -.00    -.00    -.00    -.00    -.00    -.00    -.00    -.00    -.00    -.00    -.00    -.00    -.00
0 25     -.00    -.00    -.00    -.00    -.00    -.00    -.00    -.00    -.00    -.00    -.00     .00     .00     .00     .00
1                      HEAD IN LAYER 10 AT END OF TIME STEP 24 IN STRESS PERIOD  1
           -----------------------------------------------------------------------

          16      17      18      19      20      21      22      23      24      25
 ........................................................................................
0  1    -3.49   -1.50    -.60    -.24    -.10    -.04    -.01    -.01    -.00    -.00
0  2    -3.49   -1.50    -.60    -.24    -.10    -.04    -.01    -.01    -.00    -.00
0  3    -3.49   -1.50    -.60    -.24    -.10    -.04    -.01    -.01    -.00    -.00
0  4    -3.49   -1.50    -.60    -.24    -.10    -.04    -.01    -.01    -.00    -.00
0  5    -3.49   -1.49    -.60    -.24    -.10    -.04    -.01    -.01    -.00    -.00
0  6    -3.48   -1.49    -.60    -.24    -.10    -.04    -.01    -.01    -.00    -.00
0  7    -3.48   -1.49    -.60    -.24    -.10    -.04    -.01    -.01    -.00    -.00
0  8    -3.47   -1.49    -.60    -.24    -.10    -.04    -.01    -.01    -.00    -.00
0  9    -3.44   -1.48    -.60    -.24    -.10    -.04    -.01    -.01    -.00    -.00
0 10    -3.40   -1.47    -.60    -.24    -.10    -.04    -.01    -.01    -.00    -.00
0 11    -3.34   -1.45    -.59    -.24    -.10    -.04    -.01    -.01    -.00    -.00
0 12    -3.22   -1.41    -.58    -.23    -.09    -.04    -.01    -.01    -.00     .00
0 13    -3.02   -1.34    -.56    -.23    -.09    -.04    -.01    -.01    -.00     .00
0 14    -2.66   -1.22    -.51    -.21    -.09    -.03    -.01    -.01    -.00     .00
0 15    -2.08   -1.01    -.44    -.19    -.08    -.03    -.01    -.00    -.00     .00
0 16    -1.35    -.71    -.33    -.14    -.06    -.03    -.01    -.00    -.00     .00
0 17     -.71    -.40    -.20    -.09    -.04    -.02    -.01    -.00    -.00     .00
0 18     -.33    -.20    -.11    -.05    -.03    -.01    -.00    -.00     .00     .00
0 19     -.14    -.09    -.05    -.03    -.01    -.01    -.00    -.00     .00     .00
0 20     -.06    -.04    -.03    -.01    -.01    -.00    -.00     .00     .00     .00
0 21     -.03    -.02    -.01    -.01    -.00    -.00     .00     .00     .00     .00
0 22     -.01    -.01    -.00    -.00    -.00     .00     .00     .00     .00     .00
0 23     -.00    -.00    -.00    -.00     .00     .00     .00     .00     .00     .00
0 24     -.00    -.00     .00     .00     .00     .00     .00     .00     .00     .00
0 25      .00     .00     .00     .00     .00     .00     .00     .00     .00     .00
0


                              VOLUMETRIC BUDGET FOR ENTIRE MODEL AT END OF TIME STEP 24 IN STRESS PERIOD  1
                              -----------------------------------------------------------------------------
0                   CUMULATIVE VOLUMES      L**3                                     RATES FOR THIS TIME STEP      L**3/T
                    ------------------                                               ------------------------

                          IN:                                                                    IN:
                          ---                                                                    ---
                            STORAGE =    .13751E+06                                                STORAGE =    1.2020    
                      CONSTANT HEAD =    17232.                                              CONSTANT HEAD =    .36765    
                              WELLS =    .00000                                                      WELLS =    .00000    
0                          TOTAL IN =    .15474E+06                                               TOTAL IN =    1.5697    
0                        OUT:                                                                   OUT:
                         ----                                                                   ----
                            STORAGE =    .00000                                                    STORAGE =    .00000    
                      CONSTANT HEAD =    .00000                                              CONSTANT HEAD =    .00000    
                              WELLS =    .15481E+06                                                  WELLS =    1.5707    
0                         TOTAL OUT =    .15481E+06                                              TOTAL OUT =    1.5707    
0                          IN - OUT =   -64.984                                                   IN - OUT =   -.10824E-02
0               PERCENT DISCREPANCY =                -.04                              PERCENT DISCREPANCY =                -.07



0


          TIME SUMMARY AT END OF TIME STEP 24 IN STRESS PERIOD  1
                               SECONDS        MINUTES         HOURS          DAYS           YEARS
                           ---------------------------------------------------------------------------
      TIME STEP LENGTH         28862.8        481.047        8.01745        .334061        .914608E-03
    STRESS PERIOD TIME         98555.6        1642.59        27.3766        1.14069        .312304E-02
 TOTAL SIMULATION TIME         98555.6        1642.59        27.3766        1.14069        .312304E-02
1
    16 ITERATIONS FOR TIME STEP  25 IN STRESS PERIOD  1
0MAXIMUM HEAD CHANGE FOR EACH ITERATION:
0 HEAD CHANGE LAYER,ROW,COL HEAD CHANGE LAYER,ROW,COL HEAD CHANGE LAYER,ROW,COL HEAD CHANGE LAYER,ROW,COL HEAD CHANGE LAYER,ROW,COL
 ------------------------------------------------------------------------------------------------------------------------------------
   -1.533     (  4,  8,  8)  -1.121     (  4,  7,  3)  -1.965     (  4,  1,  1)  -.6727     ( 10,  1,  5)  -1.124     ( 10,  1,  1)
    .2861E-01 ( 10, 13,  1)   .8472E-01 (  9, 14,  1)   .8997E-01 ( 10, 12,  1)   .3105     ( 10,  1,  1)  -.1686E-01 (  9, 14,  6)
    .4339E-02 (  6, 13,  1)   .4982E-02 (  6,  7,  2)   .1128E-01 (  8,  3, 12)   .8186E-02 ( 10,  1,  3)   .2373E-01 ( 10,  5,  1)
   -.3139E-03 ( 10, 13,  5)
0
0HEAD/DRAWDOWN PRINTOUT FLAG = 1     TOTAL BUDGET PRINTOUT FLAG = 1     CELL-BY-CELL FLOW TERM FLAG = 0
 REUSING PREVIOUS VALUES OF IOFLG
1                      HEAD IN LAYER  9 AT END OF TIME STEP 25 IN STRESS PERIOD  1
           -----------------------------------------------------------------------

           1       2       3       4       5       6       7       8       9      10      11      12      13      14      15
 ................................................................................................................................
0  1  -132.01 -112.44  -98.89  -88.04  -77.68  -67.57  -58.05  -49.04  -40.77  -34.39  -28.81  -23.39  -17.94  -12.65   -7.85
0  2  -112.44 -105.90  -96.78  -87.31  -77.43  -67.48  -58.01  -49.03  -40.76  -34.39  -28.81  -23.39  -17.94  -12.65   -7.85
0  3   -98.89  -96.78  -91.99  -85.16  -76.57  -67.15  -57.88  -48.98  -40.74  -34.38  -28.80  -23.38  -17.94  -12.65   -7.85
0  4   -88.04  -87.31  -85.16  -81.12  -74.66  -66.36  -57.56  -48.85  -40.68  -34.35  -28.79  -23.38  -17.94  -12.65   -7.84
0  5   -77.68  -77.43  -76.57  -74.66  -70.79  -64.50  -56.75  -48.50  -40.53  -34.27  -28.75  -23.35  -17.93  -12.65   -7.84
0  6   -67.57  -67.48  -67.15  -66.36  -64.50  -60.69  -54.83  -47.63  -40.14  -34.07  -28.64  -23.30  -17.90  -12.63   -7.84
0  7   -58.05  -58.01  -57.88  -57.56  -56.75  -54.83  -51.18  -45.71  -39.22  -33.57  -28.36  -23.15  -17.82  -12.60   -7.82
0  8   -49.04  -49.03  -48.98  -48.84  -48.50  -47.63  -45.71  -42.25  -37.33  -32.49  -27.75  -22.81  -17.65  -12.52   -7.79
0  9   -40.77  -40.76  -40.74  -40.68  -40.53  -40.14  -39.22  -37.32  -34.13  -30.46  -26.51  -22.10  -17.28  -12.34   -7.72
0 10   -34.39  -34.39  -34.38  -34.35  -34.27  -34.07  -33.57  -32.49  -30.46  -27.83  -24.74  -21.01  -16.68  -12.05   -7.59
0 11   -28.81  -28.81  -28.80  -28.79  -28.74  -28.63  -28.36  -27.75  -26.51  -24.74  -22.49  -19.52  -15.81  -11.61   -7.40
0 12   -23.39  -23.39  -23.38  -23.37  -23.35  -23.29  -23.15  -22.81  -22.10  -21.01  -19.52  -17.38  -14.46  -10.88   -7.08
0 13   -17.94  -17.94  -17.94  -17.94  -17.92  -17.90  -17.82  -17.65  -17.28  -16.68  -15.81  -14.46  -12.45   -9.70   -6.52
0 14   -12.65  -12.65  -12.65  -12.65  -12.64  -12.63  -12.60  -12.52  -12.34  -12.05  -11.61  -10.88   -9.70   -7.91   -5.58
0 15    -7.84   -7.84   -7.84   -7.84   -7.84   -7.84   -7.82   -7.79   -7.72   -7.59   -7.40   -7.08   -6.52   -5.58   -4.19
0 16    -4.20   -4.20   -4.20   -4.20   -4.20   -4.20   -4.19   -4.18   -4.15   -4.11   -4.03   -3.91   -3.68   -3.28   -2.62
0 17    -1.93   -1.93   -1.93   -1.93   -1.93   -1.93   -1.93   -1.93   -1.92   -1.90   -1.88   -1.84   -1.76   -1.61   -1.35
0 18     -.85    -.85    -.85    -.85    -.85    -.85    -.85    -.84    -.84    -.84    -.83    -.81    -.78    -.73    -.64
0 19     -.37    -.37    -.37    -.37    -.37    -.37    -.37    -.37    -.37    -.37    -.36    -.36    -.35    -.33    -.29
0 20     -.16    -.16    -.16    -.16    -.16    -.16    -.16    -.16    -.16    -.16    -.16    -.16    -.15    -.15    -.13
0 21     -.07    -.07    -.07    -.07    -.07    -.07    -.07    -.07    -.07    -.07    -.07    -.07    -.07    -.06    -.06
0 22     -.03    -.03    -.03    -.03    -.03    -.03    -.03    -.03    -.03    -.03    -.03    -.03    -.03    -.03    -.03
0 23     -.01    -.01    -.01    -.01    -.01    -.01    -.01    -.01    -.01    -.01    -.01    -.01    -.01    -.01    -.01
0 24     -.01    -.01    -.01    -.01    -.01    -.01    -.01    -.01    -.01    -.01    -.01    -.01    -.01    -.01    -.00
0 25     -.00    -.00    -.00    -.00    -.00    -.00    -.00    -.00    -.00    -.00    -.00    -.00    -.00    -.00    -.00
1                      HEAD IN LAYER  9 AT END OF TIME STEP 25 IN STRESS PERIOD  1
           -----------------------------------------------------------------------

          16      17      18      19      20      21      22      23      24      25
 ........................................................................................
0  1    -4.20   -1.93    -.85    -.37    -.16    -.07    -.03    -.01    -.01    -.00
0  2    -4.20   -1.93    -.85    -.37    -.16    -.07    -.03    -.01    -.01    -.00
0  3    -4.20   -1.93    -.85    -.37    -.16    -.07    -.03    -.01    -.01    -.00
0  4    -4.20   -1.93    -.85    -.37    -.16    -.07    -.03    -.01    -.01    -.00
0  5    -4.20   -1.93    -.85    -.37    -.16    -.07    -.03    -.01    -.01    -.00
0  6    -4.20   -1.93    -.85    -.37    -.16    -.07    -.03    -.01    -.01    -.00
0  7    -4.19   -1.93    -.85    -.37    -.16    -.07    -.03    -.01    -.01    -.00
0  8    -4.18   -1.93    -.84    -.37    -.16    -.07    -.03    -.01    -.01    -.00
0  9    -4.15   -1.92    -.84    -.37    -.16    -.07    -.03    -.01    -.01    -.00
0 10    -4.11   -1.90    -.84    -.37    -.16    -.07    -.03    -.01    -.01    -.00
0 11    -4.04   -1.88    -.83    -.36    -.16    -.07    -.03    -.01    -.01    -.00
0 12    -3.91   -1.84    -.81    -.36    -.16    -.07    -.03    -.01    -.01    -.00
0 13    -3.68   -1.76    -.79    -.35    -.15    -.07    -.03    -.01    -.01    -.00
0 14    -3.28   -1.61    -.73    -.33    -.15    -.06    -.03    -.01    -.01    -.00
0 15    -2.62   -1.35    -.64    -.29    -.13    -.06    -.03    -.01    -.00    -.00
0 16    -1.77    -.98    -.49    -.23    -.11    -.05    -.02    -.01    -.00    -.00
0 17     -.98    -.59    -.31    -.16    -.08    -.04    -.02    -.01    -.00    -.00
0 18     -.49    -.31    -.18    -.09    -.05    -.02    -.01    -.01    -.00    -.00
0 19     -.23    -.16    -.09    -.05    -.03    -.01    -.01    -.00    -.00     .00
0 20     -.11    -.08    -.05    -.03    -.02    -.01    -.00    -.00    -.00     .00
0 21     -.05    -.04    -.02    -.01    -.01    -.00    -.00    -.00     .00     .00
0 22     -.02    -.02    -.01    -.01    -.00    -.00    -.00     .00     .00     .00
0 23     -.01    -.01    -.01    -.00    -.00    -.00     .00     .00     .00     .00
0 24     -.00    -.00    -.00    -.00    -.00     .00     .00     .00     .00     .00
0 25     -.00    -.00    -.00     .00     .00     .00     .00     .00     .00     .00
1                      HEAD IN LAYER 10 AT END OF TIME STEP 25 IN STRESS PERIOD  1
           -----------------------------------------------------------------------

           1       2       3       4       5       6       7       8       9      10      11      12      13      14      15
 ................................................................................................................................
0  1  -133.16 -113.52  -99.86  -88.87  -78.34  -68.07  -58.42  -49.34  -41.01  -34.60  -28.98  -23.53  -18.06  -12.74   -7.90
0  2  -113.52 -106.94  -97.73  -88.13  -78.08  -67.97  -58.38  -49.32  -41.00  -34.59  -28.98  -23.53  -18.06  -12.74   -7.90
0  3   -99.86  -97.73  -92.87  -85.94  -77.22  -67.64  -58.26  -49.27  -40.98  -34.58  -28.98  -23.53  -18.06  -12.74   -7.90
0  4   -88.87  -88.13  -85.94  -81.84  -75.27  -66.84  -57.93  -49.14  -40.92  -34.55  -28.96  -23.52  -18.05  -12.74   -7.90
0  5   -78.34  -78.08  -77.22  -75.27  -71.34  -64.95  -57.11  -48.79  -40.77  -34.48  -28.92  -23.50  -18.04  -12.73   -7.90
0  6   -68.07  -67.97  -67.64  -66.84  -64.95  -61.09  -55.17  -47.91  -40.38  -34.27  -28.81  -23.44  -18.01  -12.72   -7.89
0  7   -58.42  -58.38  -58.25  -57.93  -57.11  -55.17  -51.49  -45.98  -39.45  -33.77  -28.54  -23.29  -17.94  -12.68   -7.88
0  8   -49.34  -49.32  -49.27  -49.14  -48.79  -47.91  -45.98  -42.50  -37.55  -32.68  -27.92  -22.95  -17.76  -12.60   -7.85
0  9   -41.01  -41.00  -40.98  -40.92  -40.77  -40.38  -39.45  -37.55  -34.33  -30.64  -26.67  -22.24  -17.39  -12.43   -7.77
0 10   -34.60  -34.59  -34.58  -34.55  -34.48  -34.27  -33.77  -32.68  -30.64  -28.00  -24.90  -21.15  -16.79  -12.13   -7.65
0 11   -28.98  -28.98  -28.98  -28.96  -28.92  -28.81  -28.54  -27.92  -26.67  -24.90  -22.63  -19.65  -15.92  -11.69   -7.46
0 12   -23.53  -23.53  -23.53  -23.52  -23.50  -23.44  -23.29  -22.95  -22.24  -21.14  -19.64  -17.49  -14.56  -10.96   -7.13
0 13   -18.06  -18.06  -18.06  -18.05  -18.04  -18.01  -17.94  -17.76  -17.39  -16.79  -15.91  -14.56  -12.53   -9.77   -6.57
0 14   -12.74  -12.74  -12.74  -12.73  -12.73  -12.72  -12.68  -12.60  -12.42  -12.13  -11.69  -10.96   -9.77   -7.97   -5.62
0 15    -7.90   -7.90   -7.90   -7.90   -7.90   -7.89   -7.88   -7.84   -7.77   -7.65   -7.46   -7.13   -6.57   -5.62   -4.22
0 16    -4.23   -4.23   -4.23   -4.23   -4.23   -4.23   -4.22   -4.21   -4.18   -4.14   -4.07   -3.94   -3.71   -3.31   -2.65
0 17    -1.95   -1.95   -1.95   -1.95   -1.95   -1.95   -1.95   -1.94   -1.93   -1.92   -1.89   -1.85   -1.77   -1.62   -1.37
0 18     -.85    -.85    -.85    -.85    -.85    -.85    -.85    -.85    -.85    -.84    -.83    -.82    -.79    -.74    -.64
0 19     -.37    -.37    -.37    -.37    -.37    -.37    -.37    -.37    -.37    -.37    -.37    -.36    -.35    -.33    -.29
0 20     -.16    -.16    -.16    -.16    -.16    -.16    -.16    -.16    -.16    -.16    -.16    -.16    -.15    -.15    -.13
0 21     -.07    -.07    -.07    -.07    -.07    -.07    -.07    -.07    -.07    -.07    -.07    -.07    -.07    -.06    -.06
0 22     -.03    -.03    -.03    -.03    -.03    -.03    -.03    -.03    -.03    -.03    -.03    -.03    -.03    -.03    -.03
0 23     -.01    -.01    -.01    -.01    -.01    -.01    -.01    -.01    -.01    -.01    -.01    -.01    -.01    -.01    -.01
0 24     -.01    -.01    -.01    -.01    -.01    -.01    -.01    -.01    -.01    -.01    -.01    -.01    -.01    -.01    -.01
0 25     -.00    -.00    -.00    -.00    -.00    -.00    -.00    -.00    -.00    -.00    -.00    -.00    -.00    -.00    -.00
1                      HEAD IN LAYER 10 AT END OF TIME STEP 25 IN STRESS PERIOD  1
           -----------------------------------------------------------------------

          16      17      18      19      20      21      22      23      24      25
 ........................................................................................
0  1    -4.23   -1.95    -.85    -.37    -.16    -.07    -.03    -.01    -.01    -.00
0  2    -4.23   -1.95    -.85    -.37    -.16    -.07    -.03    -.01    -.01    -.00
0  3    -4.23   -1.95    -.85    -.37    -.16    -.07    -.03    -.01    -.01    -.00
0  4    -4.23   -1.95    -.85    -.37    -.16    -.07    -.03    -.01    -.01    -.00
0  5    -4.23   -1.95    -.85    -.37    -.16    -.07    -.03    -.01    -.01    -.00
0  6    -4.23   -1.95    -.85    -.37    -.16    -.07    -.03    -.01    -.01    -.00
0  7    -4.23   -1.95    -.85    -.37    -.16    -.07    -.03    -.01    -.01    -.00
0  8    -4.21   -1.94    -.85    -.37    -.16    -.07    -.03    -.01    -.01    -.00
0  9    -4.19   -1.94    -.85    -.37    -.16    -.07    -.03    -.01    -.01    -.00
0 10    -4.14   -1.92    -.84    -.37    -.16    -.07    -.03    -.01    -.01    -.00
0 11    -4.07   -1.90    -.84    -.37    -.16    -.07    -.03    -.01    -.01    -.00
0 12    -3.94   -1.85    -.82    -.36    -.16    -.07    -.03    -.01    -.01    -.00
0 13    -3.71   -1.77    -.79    -.35    -.15    -.07    -.03    -.01    -.01    -.00
0 14    -3.31   -1.62    -.74    -.33    -.15    -.06    -.03    -.01    -.01    -.00
0 15    -2.65   -1.37    -.64    -.29    -.13    -.06    -.03    -.01    -.01    -.00
0 16    -1.79    -.99    -.49    -.23    -.11    -.05    -.02    -.01    -.00    -.00
0 17     -.99    -.60    -.32    -.16    -.08    -.04    -.02    -.01    -.00    -.00
0 18     -.49    -.32    -.18    -.10    -.05    -.02    -.01    -.01    -.00    -.00
0 19     -.23    -.16    -.10    -.05    -.03    -.01    -.01    -.00    -.00     .00
0 20     -.11    -.08    -.05    -.03    -.02    -.01    -.00    -.00    -.00     .00
0 21     -.05    -.04    -.02    -.01    -.01    -.00    -.00    -.00     .00     .00
0 22     -.02    -.02    -.01    -.01    -.00    -.00    -.00     .00     .00     .00
0 23     -.01    -.01    -.01    -.00    -.00    -.00     .00     .00     .00     .00
0 24     -.00    -.00    -.00    -.00    -.00     .00     .00     .00     .00     .00
0 25     -.00    -.00    -.00     .00     .00     .00     .00     .00     .00     .00
0


                              VOLUMETRIC BUDGET FOR ENTIRE MODEL AT END OF TIME STEP 25 IN STRESS PERIOD  1
                              -----------------------------------------------------------------------------
0                   CUMULATIVE VOLUMES      L**3                                     RATES FOR THIS TIME STEP      L**3/T
                    ------------------                                               ------------------------

                          IN:                                                                    IN:
                          ---                                                                    ---
                            STORAGE =    .17846E+06                                                STORAGE =    1.0034    
                      CONSTANT HEAD =    40333.                                              CONSTANT HEAD =    .56603    
                              WELLS =    .00000                                                      WELLS =    .00000    
0                          TOTAL IN =    .21879E+06                                               TOTAL IN =    1.5694    
0                        OUT:                                                                   OUT:
                         ----                                                                   ----
                            STORAGE =    .00000                                                    STORAGE =    .00000    
                      CONSTANT HEAD =    .00000                                              CONSTANT HEAD =    .00000    
                              WELLS =    .21891E+06                                                  WELLS =    1.5707    
0                         TOTAL OUT =    .21891E+06                                              TOTAL OUT =    1.5707    
0                          IN - OUT =   -119.28                                                   IN - OUT =   -.13301E-02
0               PERCENT DISCREPANCY =                -.05                              PERCENT DISCREPANCY =                -.08



0


          TIME SUMMARY AT END OF TIME STEP 25 IN STRESS PERIOD  1
                               SECONDS        MINUTES         HOURS          DAYS           YEARS
                           ---------------------------------------------------------------------------
      TIME STEP LENGTH         40812.0        680.201        11.3367        .472362        .129326E-02
    STRESS PERIOD TIME         139368.        2322.79        38.7132        1.61305        .441630E-02
 TOTAL SIMULATION TIME         139368.        2322.79        38.7132        1.61305        .441630E-02
1
    16 ITERATIONS FOR TIME STEP  26 IN STRESS PERIOD  1
0MAXIMUM HEAD CHANGE FOR EACH ITERATION:
0 HEAD CHANGE LAYER,ROW,COL HEAD CHANGE LAYER,ROW,COL HEAD CHANGE LAYER,ROW,COL HEAD CHANGE LAYER,ROW,COL HEAD CHANGE LAYER,ROW,COL
 ------------------------------------------------------------------------------------------------------------------------------------
   -1.053     (  4,  9,  9)  -.7664     (  4,  8,  3)  -1.367     (  4,  1,  1)  -.6121     ( 10,  1,  5)  -1.027     ( 10,  1,  1)
    .2462E-01 ( 10, 13,  1)   .7516E-01 (  9, 14,  1)   .8294E-01 ( 10, 12,  1)   .3268     ( 10,  1,  1)  -.1578E-01 (  9, 15,  6)
    .4243E-02 (  7,  6,  1)   .5378E-02 (  6,  7,  2)   .1133E-01 (  8,  3, 12)   .9195E-02 ( 10,  1,  3)   .2656E-01 ( 10,  5,  1)
   -.3692E-03 ( 10, 13,  4)
0
0HEAD/DRAWDOWN PRINTOUT FLAG = 1     TOTAL BUDGET PRINTOUT FLAG = 1     CELL-BY-CELL FLOW TERM FLAG = 0
 REUSING PREVIOUS VALUES OF IOFLG
1                      HEAD IN LAYER  9 AT END OF TIME STEP 26 IN STRESS PERIOD  1
           -----------------------------------------------------------------------

           1       2       3       4       5       6       7       8       9      10      11      12      13      14      15
 ................................................................................................................................
0  1  -133.43 -113.86 -100.31  -89.46  -79.11  -68.99  -59.47  -50.46  -42.17  -35.78  -30.17  -24.71  -19.19  -13.79   -8.81
0  2  -113.86 -107.33  -98.20  -88.74  -78.85  -68.90  -59.43  -50.44  -42.16  -35.77  -30.17  -24.70  -19.19  -13.79   -8.81
0  3  -100.31  -98.20  -93.41  -86.58  -78.00  -68.57  -59.30  -50.39  -42.14  -35.76  -30.16  -24.70  -19.19  -13.79   -8.81
0  4   -89.46  -88.74  -86.58  -82.54  -76.08  -67.78  -58.98  -50.26  -42.08  -35.73  -30.14  -24.69  -19.19  -13.79   -8.81
0  5   -79.11  -78.85  -78.00  -76.08  -72.21  -65.92  -58.17  -49.92  -41.94  -35.66  -30.10  -24.67  -19.18  -13.79   -8.81
0  6   -68.99  -68.90  -68.57  -67.78  -65.92  -62.11  -56.25  -49.04  -41.54  -35.45  -29.99  -24.61  -19.15  -13.77   -8.80
0  7   -59.47  -59.43  -59.30  -58.98  -58.17  -56.25  -52.59  -47.12  -40.62  -34.95  -29.72  -24.46  -19.07  -13.74   -8.79
0  8   -50.46  -50.44  -50.39  -50.26  -49.92  -49.04  -47.12  -43.66  -38.72  -33.87  -29.10  -24.12  -18.90  -13.65   -8.75
0  9   -42.17  -42.16  -42.14  -42.08  -41.94  -41.54  -40.62  -38.72  -35.51  -31.83  -27.85  -23.41  -18.52  -13.47   -8.68
0 10   -35.78  -35.77  -35.76  -35.73  -35.66  -35.45  -34.95  -33.87  -31.83  -29.18  -26.07  -22.30  -17.91  -13.17   -8.55
0 11   -30.17  -30.17  -30.16  -30.14  -30.10  -29.99  -29.72  -29.10  -27.85  -26.07  -23.80  -20.79  -17.03  -12.72   -8.35
0 12   -24.70  -24.70  -24.70  -24.69  -24.67  -24.61  -24.46  -24.12  -23.41  -22.30  -20.79  -18.62  -15.65  -11.97   -8.01
0 13   -19.19  -19.19  -19.19  -19.19  -19.18  -19.15  -19.07  -18.90  -18.52  -17.91  -17.02  -15.65  -13.58  -10.75   -7.41
0 14   -13.79  -13.79  -13.79  -13.79  -13.78  -13.77  -13.74  -13.65  -13.47  -13.17  -12.72  -11.97  -10.75   -8.88   -6.42
0 15    -8.81   -8.81   -8.81   -8.81   -8.81   -8.80   -8.79   -8.75   -8.68   -8.55   -8.35   -8.01   -7.41   -6.42   -4.92
0 16    -4.93   -4.93   -4.93   -4.93   -4.93   -4.93   -4.92   -4.91   -4.88   -4.83   -4.75   -4.61   -4.37   -3.93   -3.20
0 17    -2.41   -2.41   -2.41   -2.41   -2.41   -2.41   -2.41   -2.40   -2.39   -2.38   -2.35   -2.30   -2.21   -2.04   -1.74
0 18    -1.13   -1.13   -1.13   -1.13   -1.13   -1.13   -1.13   -1.13   -1.12   -1.12   -1.11   -1.09   -1.06    -.99    -.87
0 19     -.53    -.53    -.53    -.53    -.53    -.53    -.53    -.53    -.53    -.53    -.52    -.52    -.50    -.48    -.43
0 20     -.25    -.25    -.25    -.25    -.25    -.25    -.25    -.25    -.25    -.25    -.25    -.24    -.24    -.23    -.21
0 21     -.12    -.12    -.12    -.12    -.12    -.12    -.12    -.12    -.12    -.12    -.12    -.11    -.11    -.11    -.10
0 22     -.05    -.05    -.05    -.05    -.05    -.05    -.05    -.05    -.05    -.05    -.05    -.05    -.05    -.05    -.05
0 23     -.03    -.03    -.03    -.03    -.03    -.03    -.03    -.03    -.03    -.03    -.03    -.02    -.02    -.02    -.02
0 24     -.01    -.01    -.01    -.01    -.01    -.01    -.01    -.01    -.01    -.01    -.01    -.01    -.01    -.01    -.01
0 25     -.01    -.01    -.01    -.01    -.01    -.01    -.01    -.01    -.01    -.01    -.01    -.01    -.01    -.01    -.01
1                      HEAD IN LAYER  9 AT END OF TIME STEP 26 IN STRESS PERIOD  1
           -----------------------------------------------------------------------

          16      17      18      19      20      21      22      23      24      25
 ........................................................................................
0  1    -4.93   -2.41   -1.13    -.53    -.25    -.12    -.05    -.03    -.01    -.01
0  2    -4.93   -2.41   -1.13    -.53    -.25    -.12    -.05    -.03    -.01    -.01
0  3    -4.93   -2.41   -1.13    -.53    -.25    -.12    -.05    -.03    -.01    -.01
0  4    -4.93   -2.41   -1.13    -.53    -.25    -.12    -.05    -.03    -.01    -.01
0  5    -4.93   -2.41   -1.13    -.53    -.25    -.12    -.05    -.03    -.01    -.01
0  6    -4.93   -2.41   -1.13    -.53    -.25    -.12    -.05    -.03    -.01    -.01
0  7    -4.92   -2.41   -1.13    -.53    -.25    -.12    -.05    -.03    -.01    -.01
0  8    -4.91   -2.41   -1.13    -.53    -.25    -.12    -.05    -.03    -.01    -.01
0  9    -4.88   -2.40   -1.13    -.53    -.25    -.12    -.05    -.03    -.01    -.01
0 10    -4.83   -2.38   -1.12    -.53    -.25    -.12    -.05    -.03    -.01    -.01
0 11    -4.75   -2.35   -1.11    -.52    -.25    -.11    -.05    -.03    -.01    -.01
0 12    -4.62   -2.30   -1.09    -.52    -.24    -.11    -.05    -.02    -.01    -.01
0 13    -4.37   -2.21   -1.06    -.50    -.24    -.11    -.05    -.02    -.01    -.01
0 14    -3.93   -2.04    -.99    -.48    -.23    -.11    -.05    -.02    -.01    -.01
0 15    -3.20   -1.74    -.88    -.43    -.21    -.10    -.05    -.02    -.01    -.01
0 16    -2.23   -1.30    -.69    -.35    -.17    -.08    -.04    -.02    -.01    -.01
0 17    -1.30    -.82    -.46    -.25    -.13    -.06    -.03    -.02    -.01    -.00
0 18     -.69    -.46    -.28    -.16    -.08    -.04    -.02    -.01    -.01    -.00
0 19     -.35    -.25    -.16    -.09    -.05    -.03    -.01    -.01    -.00    -.00
0 20     -.17    -.13    -.08    -.05    -.03    -.02    -.01    -.01    -.00    -.00
0 21     -.08    -.06    -.04    -.03    -.02    -.01    -.01    -.00    -.00    -.00
0 22     -.04    -.03    -.02    -.01    -.01    -.01    -.00    -.00    -.00     .00
0 23     -.02    -.02    -.01    -.01    -.01    -.00    -.00    -.00     .00     .00
0 24     -.01    -.01    -.01    -.00    -.00    -.00    -.00     .00     .00     .00
0 25     -.01    -.00    -.00    -.00    -.00    -.00     .00     .00     .00     .00
1                      HEAD IN LAYER 10 AT END OF TIME STEP 26 IN STRESS PERIOD  1
           -----------------------------------------------------------------------

           1       2       3       4       5       6       7       8       9      10      11      12      13      14      15
 ................................................................................................................................
0  1  -134.56 -114.92 -101.26  -90.27  -79.75  -69.47  -59.82  -50.73  -42.39  -35.97  -30.33  -24.84  -19.30  -13.87   -8.87
0  2  -114.92 -108.34  -99.13  -89.53  -79.48  -69.37  -59.78  -50.72  -42.39  -35.96  -30.33  -24.84  -19.30  -13.87   -8.87
0  3  -101.26  -99.13  -94.28  -87.35  -78.62  -69.04  -59.65  -50.66  -42.36  -35.95  -30.32  -24.84  -19.30  -13.87   -8.87
0  4   -90.27  -89.53  -87.35  -83.24  -76.67  -68.24  -59.33  -50.53  -42.31  -35.92  -30.31  -24.83  -19.30  -13.87   -8.87
0  5   -79.75  -79.48  -78.62  -76.67  -72.74  -66.35  -58.51  -50.19  -42.16  -35.85  -30.27  -24.81  -19.28  -13.87   -8.86
0  6   -69.47  -69.37  -69.04  -68.24  -66.35  -62.49  -56.57  -49.31  -41.76  -35.64  -30.15  -24.75  -19.25  -13.85   -8.86
0  7   -59.82  -59.78  -59.65  -59.33  -58.51  -56.57  -52.88  -47.37  -40.83  -35.14  -29.88  -24.60  -19.18  -13.82   -8.84
0  8   -50.73  -50.72  -50.66  -50.53  -50.19  -49.31  -47.37  -43.89  -38.92  -34.05  -29.26  -24.26  -19.00  -13.73   -8.81
0  9   -42.39  -42.38  -42.36  -42.31  -42.16  -41.76  -40.83  -38.92  -35.70  -32.00  -28.01  -23.54  -18.62  -13.55   -8.73
0 10   -35.97  -35.96  -35.95  -35.92  -35.85  -35.64  -35.14  -34.05  -32.00  -29.34  -26.22  -22.43  -18.01  -13.25   -8.60
0 11   -30.33  -30.33  -30.32  -30.31  -30.26  -30.15  -29.88  -29.26  -28.01  -26.22  -23.93  -20.91  -17.12  -12.79   -8.40
0 12   -24.84  -24.84  -24.84  -24.83  -24.81  -24.75  -24.60  -24.25  -23.54  -22.43  -20.91  -18.73  -15.74  -12.04   -8.06
0 13   -19.30  -19.30  -19.30  -19.29  -19.28  -19.25  -19.18  -19.00  -18.62  -18.01  -17.12  -15.74  -13.66  -10.81   -7.46
0 14   -13.87  -13.87  -13.87  -13.87  -13.86  -13.85  -13.82  -13.73  -13.55  -13.25  -12.79  -12.04  -10.81   -8.94   -6.46
0 15    -8.86   -8.86   -8.86   -8.86   -8.86   -8.86   -8.84   -8.81   -8.73   -8.60   -8.40   -8.06   -7.46   -6.46   -4.96
0 16    -4.96   -4.96   -4.96   -4.96   -4.96   -4.96   -4.95   -4.94   -4.91   -4.86   -4.78   -4.64   -4.40   -3.96   -3.22
0 17    -2.43   -2.43   -2.43   -2.43   -2.43   -2.43   -2.43   -2.42   -2.41   -2.39   -2.37   -2.32   -2.23   -2.06   -1.76
0 18    -1.14   -1.14   -1.14   -1.14   -1.14   -1.14   -1.14   -1.14   -1.13   -1.13   -1.12   -1.10   -1.06   -1.00    -.88
0 19     -.54    -.54    -.54    -.54    -.54    -.54    -.54    -.54    -.53    -.53    -.53    -.52    -.51    -.48    -.43
0 20     -.25    -.25    -.25    -.25    -.25    -.25    -.25    -.25    -.25    -.25    -.25    -.25    -.24    -.23    -.21
0 21     -.12    -.12    -.12    -.12    -.12    -.12    -.12    -.12    -.12    -.12    -.12    -.11    -.11    -.11    -.10
0 22     -.05    -.05    -.05    -.05    -.05    -.05    -.05    -.05    -.05    -.05    -.05    -.05    -.05    -.05    -.05
0 23     -.03    -.03    -.03    -.03    -.03    -.03    -.03    -.03    -.03    -.03    -.03    -.03    -.02    -.02    -.02
0 24     -.01    -.01    -.01    -.01    -.01    -.01    -.01    -.01    -.01    -.01    -.01    -.01    -.01    -.01    -.01
0 25     -.01    -.01    -.01    -.01    -.01    -.01    -.01    -.01    -.01    -.01    -.01    -.01    -.01    -.01    -.01
1                      HEAD IN LAYER 10 AT END OF TIME STEP 26 IN STRESS PERIOD  1
           -----------------------------------------------------------------------

          16      17      18      19      20      21      22      23      24      25
 ........................................................................................
0  1    -4.96   -2.43   -1.14    -.54    -.25    -.12    -.05    -.03    -.01    -.01
0  2    -4.96   -2.43   -1.14    -.54    -.25    -.12    -.05    -.03    -.01    -.01
0  3    -4.96   -2.43   -1.14    -.54    -.25    -.12    -.05    -.03    -.01    -.01
0  4    -4.96   -2.43   -1.14    -.54    -.25    -.12    -.05    -.03    -.01    -.01
0  5    -4.96   -2.43   -1.14    -.54    -.25    -.12    -.05    -.03    -.01    -.01
0  6    -4.96   -2.43   -1.14    -.54    -.25    -.12    -.05    -.03    -.01    -.01
0  7    -4.95   -2.43   -1.14    -.54    -.25    -.12    -.05    -.03    -.01    -.01
0  8    -4.94   -2.42   -1.14    -.54    -.25    -.12    -.05    -.03    -.01    -.01
0  9    -4.91   -2.41   -1.13    -.53    -.25    -.12    -.05    -.03    -.01    -.01
0 10    -4.86   -2.40   -1.13    -.53    -.25    -.12    -.05    -.03    -.01    -.01
0 11    -4.78   -2.37   -1.12    -.53    -.25    -.12    -.05    -.03    -.01    -.01
0 12    -4.65   -2.32   -1.10    -.52    -.25    -.11    -.05    -.03    -.01    -.01
0 13    -4.40   -2.23   -1.07    -.51    -.24    -.11    -.05    -.02    -.01    -.01
0 14    -3.96   -2.06   -1.00    -.48    -.23    -.11    -.05    -.02    -.01    -.01
0 15    -3.22   -1.76    -.88    -.43    -.21    -.10    -.05    -.02    -.01    -.01
0 16    -2.25   -1.31    -.69    -.35    -.18    -.09    -.04    -.02    -.01    -.01
0 17    -1.31    -.83    -.47    -.25    -.13    -.07    -.03    -.02    -.01    -.00
0 18     -.69    -.47    -.28    -.16    -.09    -.04    -.02    -.01    -.01    -.00
0 19     -.35    -.25    -.16    -.09    -.05    -.03    -.02    -.01    -.00    -.00
0 20     -.18    -.13    -.09    -.05    -.03    -.02    -.01    -.01    -.00    -.00
0 21     -.09    -.07    -.04    -.03    -.02    -.01    -.01    -.00    -.00    -.00
0 22     -.04    -.03    -.02    -.02    -.01    -.01    -.00    -.00    -.00     .00
0 23     -.02    -.02    -.01    -.01    -.01    -.00    -.00    -.00     .00     .00
0 24     -.01    -.01    -.01    -.00    -.00    -.00    -.00     .00     .00     .00
0 25     -.01    -.00    -.00    -.00    -.00    -.00     .00     .00     .00     .00
0


                              VOLUMETRIC BUDGET FOR ENTIRE MODEL AT END OF TIME STEP 26 IN STRESS PERIOD  1
                              -----------------------------------------------------------------------------
0                   CUMULATIVE VOLUMES      L**3                                     RATES FOR THIS TIME STEP      L**3/T
                    ------------------                                               ------------------------

                          IN:                                                                    IN:
                          ---                                                                    ---
                            STORAGE =    .22328E+06                                                STORAGE =    .77673    
                      CONSTANT HEAD =    86065.                                              CONSTANT HEAD =    .79247    
                              WELLS =    .00000                                                      WELLS =    .00000    
0                          TOTAL IN =    .30935E+06                                               TOTAL IN =    1.5692    
0                        OUT:                                                                   OUT:
                         ----                                                                   ----
                            STORAGE =    .00000                                                    STORAGE =    .00000    
                      CONSTANT HEAD =    .00000                                              CONSTANT HEAD =    .00000    
                              WELLS =    .30956E+06                                                  WELLS =    1.5707    
0                         TOTAL OUT =    .30956E+06                                              TOTAL OUT =    1.5707    
0                          IN - OUT =   -208.78                                                   IN - OUT =   -.15512E-02
0               PERCENT DISCREPANCY =                -.07                              PERCENT DISCREPANCY =                -.10



0


          TIME SUMMARY AT END OF TIME STEP 26 IN STRESS PERIOD  1
                               SECONDS        MINUTES         HOURS          DAYS           YEARS
                           ---------------------------------------------------------------------------
      TIME STEP LENGTH         57708.2        961.804        16.0301        .667919        .182866E-02
    STRESS PERIOD TIME         197076.        3284.60        54.7433        2.28097        .624496E-02
 TOTAL SIMULATION TIME         197076.        3284.60        54.7433        2.28097        .624496E-02
1
    16 ITERATIONS FOR TIME STEP  27 IN STRESS PERIOD  1
0MAXIMUM HEAD CHANGE FOR EACH ITERATION:
0 HEAD CHANGE LAYER,ROW,COL HEAD CHANGE LAYER,ROW,COL HEAD CHANGE LAYER,ROW,COL HEAD CHANGE LAYER,ROW,COL HEAD CHANGE LAYER,ROW,COL
 ------------------------------------------------------------------------------------------------------------------------------------
   -.6353     (  4,  9,  9)  -.4655     (  4,  8,  4)  -.8266     (  4,  1,  1)  -.4999     ( 10,  1,  6)  -.8542     ( 10,  1,  1)
    .1911E-01 ( 10, 13,  1)   .5982E-01 (  9, 14,  1)   .6861E-01 ( 10, 12,  1)   .2982     ( 10,  1,  1)  -.1258E-01 (  9, 15,  7)
    .3778E-02 (  7,  6,  1)   .4976E-02 (  5,  8,  2)   .1015E-01 (  8,  3, 12)   .9617E-02 ( 10,  1,  3)   .2736E-01 ( 10,  4,  1)
   -.3788E-03 ( 10, 13,  4)
0
0HEAD/DRAWDOWN PRINTOUT FLAG = 1     TOTAL BUDGET PRINTOUT FLAG = 1     CELL-BY-CELL FLOW TERM FLAG = 0
 REUSING PREVIOUS VALUES OF IOFLG
1                      HEAD IN LAYER  9 AT END OF TIME STEP 27 IN STRESS PERIOD  1
           -----------------------------------------------------------------------

           1       2       3       4       5       6       7       8       9      10      11      12      13      14      15
 ................................................................................................................................
0  1  -134.52 -114.96 -101.41  -90.56  -80.20  -70.09  -60.56  -51.55  -43.25  -36.85  -31.23  -25.74  -20.19  -14.72   -9.62
0  2  -114.96 -108.42  -99.30  -89.83  -79.94  -69.99  -60.52  -51.53  -43.25  -36.85  -31.22  -25.74  -20.19  -14.72   -9.62
0  3  -101.41  -99.30  -94.51  -87.68  -79.09  -69.67  -60.40  -51.48  -43.22  -36.83  -31.22  -25.74  -20.19  -14.72   -9.62
0  4   -90.56  -89.83  -87.68  -83.63  -77.18  -68.88  -60.08  -51.35  -43.17  -36.81  -31.20  -25.73  -20.18  -14.71   -9.62
0  5   -80.20  -79.94  -79.09  -77.18  -73.31  -67.02  -59.27  -51.01  -43.02  -36.73  -31.16  -25.71  -20.17  -14.71   -9.62
0  6   -70.09  -69.99  -69.67  -68.88  -67.02  -63.21  -57.34  -50.13  -42.63  -36.52  -31.05  -25.65  -20.14  -14.70   -9.61
0  7   -60.56  -60.52  -60.40  -60.08  -59.27  -57.34  -53.68  -48.21  -41.70  -36.03  -30.78  -25.50  -20.06  -14.66   -9.60
0  8   -51.55  -51.53  -51.48  -51.35  -51.01  -50.13  -48.21  -44.74  -39.80  -34.93  -30.15  -25.15  -19.89  -14.58   -9.56
0  9   -43.25  -43.25  -43.22  -43.17  -43.02  -42.63  -41.70  -39.80  -36.58  -32.89  -28.90  -24.43  -19.51  -14.39   -9.48
0 10   -36.85  -36.85  -36.83  -36.81  -36.73  -36.52  -36.03  -34.93  -32.89  -30.24  -27.12  -23.32  -18.89  -14.08   -9.35
0 11   -31.23  -31.22  -31.22  -31.20  -31.16  -31.05  -30.78  -30.15  -28.90  -27.11  -24.83  -21.80  -17.99  -13.62   -9.14
0 12   -25.74  -25.74  -25.73  -25.73  -25.70  -25.64  -25.50  -25.15  -24.43  -23.32  -21.80  -19.61  -16.60  -12.86   -8.79
0 13   -20.19  -20.19  -20.18  -20.18  -20.17  -20.14  -20.06  -19.89  -19.51  -18.89  -17.99  -16.60  -14.50  -11.61   -8.17
0 14   -14.72  -14.72  -14.71  -14.71  -14.71  -14.69  -14.66  -14.57  -14.39  -14.08  -13.62  -12.86  -11.61   -9.69   -7.14
0 15    -9.62   -9.62   -9.62   -9.62   -9.62   -9.61   -9.59   -9.56   -9.48   -9.35   -9.14   -8.79   -8.17   -7.14   -5.57
0 16    -5.57   -5.57   -5.57   -5.57   -5.57   -5.57   -5.56   -5.55   -5.52   -5.47   -5.38   -5.24   -4.98   -4.51   -3.72
0 17    -2.86   -2.86   -2.86   -2.86   -2.86   -2.86   -2.86   -2.86   -2.84   -2.82   -2.79   -2.74   -2.64   -2.46   -2.12
0 18    -1.42   -1.42   -1.42   -1.42   -1.42   -1.42   -1.42   -1.42   -1.41   -1.41   -1.39   -1.37   -1.34   -1.26   -1.12
0 19     -.71    -.71    -.71    -.71    -.71    -.71    -.71    -.71    -.71    -.70    -.70    -.69    -.67    -.64    -.59
0 20     -.36    -.36    -.36    -.36    -.36    -.36    -.36    -.35    -.35    -.35    -.35    -.35    -.34    -.33    -.30
0 21     -.18    -.18    -.18    -.18    -.18    -.18    -.18    -.18    -.18    -.18    -.18    -.17    -.17    -.17    -.15
0 22     -.09    -.09    -.09    -.09    -.09    -.09    -.09    -.09    -.09    -.09    -.09    -.09    -.09    -.08    -.08
0 23     -.04    -.04    -.04    -.04    -.04    -.04    -.04    -.04    -.04    -.04    -.04    -.04    -.04    -.04    -.04
0 24     -.02    -.02    -.02    -.02    -.02    -.02    -.02    -.02    -.02    -.02    -.02    -.02    -.02    -.02    -.02
0 25     -.01    -.01    -.01    -.01    -.01    -.01    -.01    -.01    -.01    -.01    -.01    -.01    -.01    -.01    -.01
1                      HEAD IN LAYER  9 AT END OF TIME STEP 27 IN STRESS PERIOD  1
           -----------------------------------------------------------------------

          16      17      18      19      20      21      22      23      24      25
 ........................................................................................
0  1    -5.57   -2.87   -1.42    -.71    -.36    -.18    -.09    -.04    -.02    -.01
0  2    -5.57   -2.87   -1.42    -.71    -.36    -.18    -.09    -.04    -.02    -.01
0  3    -5.57   -2.87   -1.42    -.71    -.36    -.18    -.09    -.04    -.02    -.01
0  4    -5.57   -2.87   -1.42    -.71    -.36    -.18    -.09    -.04    -.02    -.01
0  5    -5.57   -2.87   -1.42    -.71    -.36    -.18    -.09    -.04    -.02    -.01
0  6    -5.57   -2.87   -1.42    -.71    -.35    -.18    -.09    -.04    -.02    -.01
0  7    -5.57   -2.86   -1.42    -.71    -.35    -.18    -.09    -.04    -.02    -.01
0  8    -5.55   -2.86   -1.42    -.71    -.35    -.18    -.09    -.04    -.02    -.01
0  9    -5.52   -2.85   -1.42    -.71    -.35    -.18    -.09    -.04    -.02    -.01
0 10    -5.47   -2.83   -1.41    -.70    -.35    -.18    -.09    -.04    -.02    -.01
0 11    -5.39   -2.80   -1.40    -.70    -.35    -.18    -.09    -.04    -.02    -.01
0 12    -5.24   -2.74   -1.38    -.69    -.35    -.17    -.09    -.04    -.02    -.01
0 13    -4.98   -2.64   -1.34    -.68    -.34    -.17    -.09    -.04    -.02    -.01
0 14    -4.51   -2.46   -1.26    -.64    -.33    -.16    -.08    -.04    -.02    -.01
0 15    -3.73   -2.12   -1.12    -.59    -.30    -.15    -.08    -.04    -.02    -.01
0 16    -2.67   -1.62    -.90    -.49    -.26    -.13    -.07    -.04    -.02    -.01
0 17    -1.62   -1.06    -.63    -.36    -.20    -.10    -.06    -.03    -.02    -.01
0 18     -.90    -.63    -.39    -.23    -.13    -.07    -.04    -.02    -.01    -.01
0 19     -.49    -.36    -.23    -.15    -.09    -.05    -.03    -.02    -.01    -.01
0 20     -.26    -.20    -.13    -.09    -.05    -.03    -.02    -.01    -.01    -.00
0 21     -.13    -.10    -.07    -.05    -.03    -.02    -.01    -.01    -.00    -.00
0 22     -.07    -.06    -.04    -.03    -.02    -.01    -.01    -.00    -.00    -.00
0 23     -.04    -.03    -.02    -.02    -.01    -.01    -.00    -.00    -.00    -.00
0 24     -.02    -.02    -.01    -.01    -.01    -.00    -.00    -.00    -.00     .00
0 25     -.01    -.01    -.01    -.01    -.00    -.00    -.00    -.00     .00     .00
1                      HEAD IN LAYER 10 AT END OF TIME STEP 27 IN STRESS PERIOD  1
           -----------------------------------------------------------------------

           1       2       3       4       5       6       7       8       9      10      11      12      13      14      15
 ................................................................................................................................
0  1  -135.64 -116.01 -102.34  -91.35  -80.83  -70.55  -60.90  -51.81  -43.46  -37.03  -31.38  -25.87  -20.29  -14.79   -9.67
0  2  -116.01 -109.43 -100.21  -90.62  -80.57  -70.45  -60.86  -51.79  -43.46  -37.03  -31.38  -25.87  -20.29  -14.79   -9.67
0  3  -102.34 -100.21  -95.36  -88.43  -79.70  -70.13  -60.74  -51.74  -43.44  -37.02  -31.37  -25.86  -20.29  -14.79   -9.67
0  4   -91.35  -90.62  -88.43  -84.32  -77.76  -69.32  -60.41  -51.61  -43.38  -36.99  -31.36  -25.86  -20.28  -14.79   -9.67
0  5   -80.83  -80.57  -79.70  -77.76  -73.82  -67.44  -59.59  -51.26  -43.23  -36.91  -31.32  -25.83  -20.27  -14.79   -9.67
0  6   -70.55  -70.45  -70.13  -69.32  -67.44  -63.58  -57.65  -50.38  -42.84  -36.70  -31.20  -25.77  -20.24  -14.77   -9.66
0  7   -60.90  -60.86  -60.74  -60.41  -59.59  -57.65  -53.96  -48.45  -41.91  -36.20  -30.93  -25.62  -20.17  -14.74   -9.65
0  8   -51.81  -51.79  -51.74  -51.61  -51.26  -50.38  -48.45  -44.96  -39.99  -35.11  -30.30  -25.28  -19.99  -14.65   -9.61
0  9   -43.46  -43.46  -43.44  -43.38  -43.23  -42.84  -41.91  -39.99  -36.76  -33.05  -29.05  -24.56  -19.61  -14.47   -9.53
0 10   -37.03  -37.03  -37.02  -36.99  -36.91  -36.70  -36.20  -35.11  -33.05  -30.39  -27.25  -23.44  -18.99  -14.16   -9.40
0 11   -31.38  -31.38  -31.37  -31.36  -31.32  -31.20  -30.93  -30.30  -29.05  -27.25  -24.95  -21.91  -18.09  -13.69   -9.19
0 12   -25.87  -25.87  -25.86  -25.86  -25.83  -25.77  -25.62  -25.28  -24.56  -23.44  -21.91  -19.71  -16.69  -12.93   -8.84
0 13   -20.29  -20.29  -20.29  -20.28  -20.27  -20.24  -20.17  -19.99  -19.61  -18.99  -18.09  -16.69  -14.58  -11.67   -8.22
0 14   -14.79  -14.79  -14.79  -14.79  -14.78  -14.77  -14.73  -14.65  -14.47  -14.16  -13.69  -12.92  -11.67   -9.75   -7.18
0 15    -9.67   -9.67   -9.67   -9.67   -9.67   -9.66   -9.65   -9.61   -9.53   -9.40   -9.19   -8.83   -8.22   -7.18   -5.60
0 16    -5.60   -5.60   -5.60   -5.60   -5.60   -5.60   -5.59   -5.58   -5.55   -5.50   -5.41   -5.27   -5.01   -4.54   -3.75
0 17    -2.88   -2.88   -2.88   -2.88   -2.88   -2.88   -2.88   -2.87   -2.86   -2.84   -2.81   -2.76   -2.66   -2.47   -2.14
0 18    -1.43   -1.43   -1.43   -1.43   -1.43   -1.43   -1.43   -1.43   -1.42   -1.42   -1.40   -1.38   -1.34   -1.27   -1.13
0 19     -.71    -.71    -.71    -.71    -.71    -.71    -.71    -.71    -.71    -.71    -.70    -.70    -.68    -.65    -.59
0 20     -.36    -.36    -.36    -.36    -.36    -.36    -.36    -.36    -.36    -.36    -.35    -.35    -.34    -.33    -.30
0 21     -.18    -.18    -.18    -.18    -.18    -.18    -.18    -.18    -.18    -.18    -.18    -.18    -.17    -.17    -.15
0 22     -.09    -.09    -.09    -.09    -.09    -.09    -.09    -.09    -.09    -.09    -.09    -.09    -.09    -.08    -.08
0 23     -.05    -.05    -.05    -.05    -.05    -.05    -.05    -.05    -.04    -.04    -.04    -.04    -.04    -.04    -.04
0 24     -.02    -.02    -.02    -.02    -.02    -.02    -.02    -.02    -.02    -.02    -.02    -.02    -.02    -.02    -.02
0 25     -.01    -.01    -.01    -.01    -.01    -.01    -.01    -.01    -.01    -.01    -.01    -.01    -.01    -.01    -.01
1                      HEAD IN LAYER 10 AT END OF TIME STEP 27 IN STRESS PERIOD  1
           -----------------------------------------------------------------------

          16      17      18      19      20      21      22      23      24      25
 ........................................................................................
0  1    -5.61   -2.88   -1.43    -.72    -.36    -.18    -.09    -.04    -.02    -.01
0  2    -5.61   -2.88   -1.43    -.72    -.36    -.18    -.09    -.04    -.02    -.01
0  3    -5.61   -2.88   -1.43    -.72    -.36    -.18    -.09    -.04    -.02    -.01
0  4    -5.61   -2.88   -1.43    -.72    -.36    -.18    -.09    -.04    -.02    -.01
0  5    -5.60   -2.88   -1.43    -.72    -.36    -.18    -.09    -.04    -.02    -.01
0  6    -5.60   -2.88   -1.43    -.72    -.36    -.18    -.09    -.04    -.02    -.01
0  7    -5.60   -2.88   -1.43    -.71    -.36    -.18    -.09    -.04    -.02    -.01
0  8    -5.58   -2.87   -1.43    -.71    -.36    -.18    -.09    -.04    -.02    -.01
0  9    -5.55   -2.86   -1.42    -.71    -.36    -.18    -.09    -.04    -.02    -.01
0 10    -5.50   -2.84   -1.42    -.71    -.35    -.18    -.09    -.04    -.02    -.01
0 11    -5.42   -2.81   -1.41    -.70    -.35    -.18    -.09    -.04    -.02    -.01
0 12    -5.27   -2.76   -1.38    -.70    -.35    -.17    -.09    -.04    -.02    -.01
0 13    -5.01   -2.66   -1.35    -.68    -.34    -.17    -.09    -.04    -.02    -.01
0 14    -4.54   -2.47   -1.27    -.65    -.33    -.17    -.08    -.04    -.02    -.01
0 15    -3.75   -2.14   -1.13    -.59    -.30    -.15    -.08    -.04    -.02    -.01
0 16    -2.69   -1.64    -.91    -.49    -.26    -.13    -.07    -.04    -.02    -.01
0 17    -1.63   -1.07    -.63    -.36    -.20    -.11    -.06    -.03    -.02    -.01
0 18     -.91    -.63    -.40    -.24    -.13    -.07    -.04    -.02    -.01    -.01
0 19     -.49    -.36    -.24    -.15    -.09    -.05    -.03    -.02    -.01    -.01
0 20     -.26    -.20    -.13    -.09    -.05    -.03    -.02    -.01    -.01    -.00
0 21     -.13    -.11    -.07    -.05    -.03    -.02    -.01    -.01    -.00    -.00
0 22     -.07    -.06    -.04    -.03    -.02    -.01    -.01    -.00    -.00    -.00
0 23     -.04    -.03    -.02    -.02    -.01    -.01    -.00    -.00    -.00    -.00
0 24     -.02    -.02    -.01    -.01    -.01    -.00    -.00    -.00    -.00     .00
0 25     -.01    -.01    -.01    -.01    -.00    -.00    -.00    -.00     .00     .00
0


                              VOLUMETRIC BUDGET FOR ENTIRE MODEL AT END OF TIME STEP 27 IN STRESS PERIOD  1
                              -----------------------------------------------------------------------------
0                   CUMULATIVE VOLUMES      L**3                                     RATES FOR THIS TIME STEP      L**3/T
                    ------------------                                               ------------------------

                          IN:                                                                    IN:
                          ---                                                                    ---
                            STORAGE =    .26794E+06                                                STORAGE =    .54726    
                      CONSTANT HEAD =    .16945E+06                                          CONSTANT HEAD =    1.0218    
                              WELLS =    .00000                                                      WELLS =    .00000    
0                          TOTAL IN =    .43739E+06                                               TOTAL IN =    1.5691    
0                        OUT:                                                                   OUT:
                         ----                                                                   ----
                            STORAGE =    .00000                                                    STORAGE =    .00000    
                      CONSTANT HEAD =    .00000                                              CONSTANT HEAD =    .00000    
                              WELLS =    .43773E+06                                                  WELLS =    1.5707    
0                         TOTAL OUT =    .43773E+06                                              TOTAL OUT =    1.5707    
0                          IN - OUT =   -343.78                                                   IN - OUT =   -.16546E-02
0               PERCENT DISCREPANCY =                -.08                              PERCENT DISCREPANCY =                -.11



0


          TIME SUMMARY AT END OF TIME STEP 27 IN STRESS PERIOD  1
                               SECONDS        MINUTES         HOURS          DAYS           YEARS
                           ---------------------------------------------------------------------------
      TIME STEP LENGTH         81599.4        1359.99        22.6665        .944438        .258573E-02
    STRESS PERIOD TIME         278675.        4644.59        77.4098        3.22541        .883069E-02
 TOTAL SIMULATION TIME         278675.        4644.59        77.4098        3.22541        .883069E-02
1
    16 ITERATIONS FOR TIME STEP  28 IN STRESS PERIOD  1
0MAXIMUM HEAD CHANGE FOR EACH ITERATION:
0 HEAD CHANGE LAYER,ROW,COL HEAD CHANGE LAYER,ROW,COL HEAD CHANGE LAYER,ROW,COL HEAD CHANGE LAYER,ROW,COL HEAD CHANGE LAYER,ROW,COL
 ------------------------------------------------------------------------------------------------------------------------------------
   -.3604     (  4, 12, 12)  -.2445     (  4,  8,  4)  -.4349     (  4,  1,  1)  -.3572     ( 10,  1,  7)  -.6300     ( 10,  1,  1)
    .1305E-01 ( 10, 13,  1)   .4174E-01 (  9, 14,  1)   .4957E-01 ( 10, 12,  1)   .2313     ( 10,  1,  1)   .1111E-01 (  9,  1,  1)
    .2879E-02 (  7,  6,  1)   .4014E-02 (  5,  8,  2)   .7892E-02 (  8,  4, 12)   .8837E-02 (  9,  1,  4)   .2482E-01 ( 10,  4,  1)
   -.3299E-03 ( 10, 13,  4)
0
0HEAD/DRAWDOWN PRINTOUT FLAG = 1     TOTAL BUDGET PRINTOUT FLAG = 1     CELL-BY-CELL FLOW TERM FLAG = 0
 REUSING PREVIOUS VALUES OF IOFLG
1                      HEAD IN LAYER  9 AT END OF TIME STEP 28 IN STRESS PERIOD  1
           -----------------------------------------------------------------------

           1       2       3       4       5       6       7       8       9      10      11      12      13      14      15
 ................................................................................................................................
0  1  -135.27 -115.71 -102.16  -91.31  -80.95  -70.84  -61.31  -52.29  -44.00  -37.59  -31.96  -26.46  -20.89  -15.38  -10.22
0  2  -115.71 -109.17 -100.05  -90.58  -80.69  -70.74  -61.27  -52.28  -43.99  -37.59  -31.96  -26.46  -20.89  -15.38  -10.22
0  3  -102.16 -100.05  -95.26  -88.43  -79.84  -70.42  -61.14  -52.23  -43.97  -37.57  -31.95  -26.46  -20.88  -15.38  -10.22
0  4   -91.31  -90.58  -88.43  -84.38  -77.93  -69.63  -60.82  -52.10  -43.91  -37.54  -31.93  -26.45  -20.88  -15.37  -10.21
0  5   -80.95  -80.69  -79.84  -77.93  -74.06  -67.77  -60.01  -51.75  -43.76  -37.47  -31.89  -26.42  -20.87  -15.37  -10.21
0  6   -70.83  -70.74  -70.42  -69.63  -67.77  -63.95  -58.09  -50.88  -43.37  -37.26  -31.78  -26.36  -20.84  -15.36  -10.21
0  7   -61.31  -61.27  -61.14  -60.82  -60.01  -58.09  -54.43  -48.96  -42.45  -36.76  -31.51  -26.22  -20.76  -15.32  -10.19
0  8   -52.29  -52.28  -52.23  -52.10  -51.75  -50.88  -48.96  -45.49  -40.54  -35.67  -30.88  -25.87  -20.58  -15.23  -10.15
0  9   -44.00  -43.99  -43.97  -43.91  -43.76  -43.37  -42.44  -40.54  -37.32  -33.63  -29.63  -25.15  -20.20  -15.05  -10.07
0 10   -37.59  -37.58  -37.57  -37.54  -37.47  -37.26  -36.76  -35.67  -33.63  -30.97  -27.84  -24.04  -19.58  -14.74   -9.94
0 11   -31.96  -31.96  -31.95  -31.93  -31.89  -31.78  -31.51  -30.88  -29.63  -27.84  -25.54  -22.51  -18.68  -14.27   -9.73
0 12   -26.46  -26.46  -26.45  -26.45  -26.42  -26.36  -26.22  -25.87  -25.15  -24.03  -22.51  -20.30  -17.28  -13.50   -9.37
0 13   -20.88  -20.88  -20.88  -20.88  -20.87  -20.84  -20.76  -20.58  -20.20  -19.58  -18.68  -17.28  -15.16  -12.24   -8.74
0 14   -15.38  -15.38  -15.37  -15.37  -15.37  -15.35  -15.32  -15.23  -15.05  -14.74  -14.27  -13.50  -12.24  -10.29   -7.68
0 15   -10.21  -10.21  -10.21  -10.21  -10.21  -10.20  -10.19  -10.15  -10.07   -9.94   -9.73   -9.37   -8.74   -7.68   -6.06
0 16    -6.07   -6.07   -6.07   -6.07   -6.06   -6.06   -6.06   -6.04   -6.01   -5.96   -5.87   -5.72   -5.45   -4.96   -4.14
0 17    -3.23   -3.23   -3.23   -3.23   -3.23   -3.23   -3.23   -3.22   -3.21   -3.19   -3.16   -3.10   -3.00   -2.80   -2.44
0 18    -1.68   -1.68   -1.68   -1.68   -1.68   -1.68   -1.67   -1.67   -1.67   -1.66   -1.65   -1.62   -1.58   -1.50   -1.35
0 19     -.88    -.88    -.88    -.88    -.88    -.88    -.88    -.88    -.87    -.87    -.87    -.86    -.84    -.80    -.73
0 20     -.46    -.46    -.46    -.46    -.46    -.46    -.46    -.46    -.46    -.46    -.46    -.45    -.44    -.43    -.40
0 21     -.24    -.24    -.24    -.24    -.24    -.24    -.24    -.24    -.24    -.24    -.24    -.24    -.24    -.23    -.21
0 22     -.13    -.13    -.13    -.13    -.13    -.13    -.13    -.13    -.13    -.13    -.13    -.13    -.13    -.12    -.12
0 23     -.07    -.07    -.07    -.07    -.07    -.07    -.07    -.07    -.07    -.07    -.07    -.07    -.07    -.07    -.06
0 24     -.04    -.04    -.04    -.04    -.04    -.04    -.04    -.04    -.04    -.04    -.04    -.04    -.04    -.04    -.04
0 25     -.02    -.02    -.02    -.02    -.02    -.02    -.02    -.02    -.02    -.02    -.02    -.02    -.02    -.02    -.02
1                      HEAD IN LAYER  9 AT END OF TIME STEP 28 IN STRESS PERIOD  1
           -----------------------------------------------------------------------

          16      17      18      19      20      21      22      23      24      25
 ........................................................................................
0  1    -6.07   -3.24   -1.68    -.88    -.46    -.24    -.13    -.07    -.04    -.02
0  2    -6.07   -3.24   -1.68    -.88    -.46    -.24    -.13    -.07    -.04    -.02
0  3    -6.07   -3.24   -1.68    -.88    -.46    -.24    -.13    -.07    -.04    -.02
0  4    -6.07   -3.24   -1.68    -.88    -.46    -.24    -.13    -.07    -.04    -.02
0  5    -6.07   -3.24   -1.68    -.88    -.46    -.24    -.13    -.07    -.04    -.02
0  6    -6.07   -3.23   -1.68    -.88    -.46    -.24    -.13    -.07    -.04    -.02
0  7    -6.06   -3.23   -1.68    -.88    -.46    -.24    -.13    -.07    -.04    -.02
0  8    -6.05   -3.23   -1.67    -.88    -.46    -.24    -.13    -.07    -.04    -.02
0  9    -6.01   -3.22   -1.67    -.88    -.46    -.24    -.13    -.07    -.04    -.02
0 10    -5.96   -3.19   -1.66    -.87    -.46    -.24    -.13    -.07    -.04    -.02
0 11    -5.87   -3.16   -1.65    -.87    -.46    -.24    -.13    -.07    -.04    -.02
0 12    -5.72   -3.10   -1.63    -.86    -.45    -.24    -.13    -.07    -.04    -.02
0 13    -5.45   -3.00   -1.58    -.84    -.44    -.24    -.13    -.07    -.04    -.02
0 14    -4.97   -2.80   -1.50    -.80    -.43    -.23    -.12    -.07    -.04    -.02
0 15    -4.15   -2.44   -1.35    -.74    -.40    -.21    -.11    -.06    -.04    -.02
0 16    -3.03   -1.90   -1.10    -.62    -.34    -.19    -.10    -.06    -.03    -.02
0 17    -1.90   -1.28    -.79    -.47    -.27    -.15    -.08    -.05    -.03    -.02
0 18    -1.10    -.79    -.51    -.32    -.19    -.11    -.06    -.04    -.02    -.01
0 19     -.62    -.47    -.32    -.20    -.13    -.08    -.05    -.03    -.02    -.01
0 20     -.34    -.27    -.19    -.13    -.08    -.05    -.03    -.02    -.01    -.01
0 21     -.19    -.15    -.11    -.08    -.05    -.03    -.02    -.01    -.01    -.01
0 22     -.10    -.08    -.06    -.05    -.03    -.02    -.01    -.01    -.01    -.00
0 23     -.06    -.05    -.04    -.03    -.02    -.01    -.01    -.01    -.00    -.00
0 24     -.03    -.03    -.02    -.02    -.01    -.01    -.01    -.00    -.00    -.00
0 25     -.02    -.02    -.01    -.01    -.01    -.01    -.00    -.00    -.00    -.00
1                      HEAD IN LAYER 10 AT END OF TIME STEP 28 IN STRESS PERIOD  1
           -----------------------------------------------------------------------

           1       2       3       4       5       6       7       8       9      10      11      12      13      14      15
 ................................................................................................................................
0  1  -136.39 -116.75 -103.09  -92.10  -81.57  -71.29  -61.64  -52.55  -44.20  -37.76  -32.11  -26.58  -20.99  -15.45  -10.27
0  2  -116.75 -110.17 -100.96  -91.36  -81.31  -71.20  -61.61  -52.54  -44.20  -37.76  -32.11  -26.58  -20.99  -15.45  -10.27
0  3  -103.09 -100.96  -96.10  -89.17  -80.44  -70.87  -61.48  -52.48  -44.18  -37.75  -32.10  -26.58  -20.98  -15.45  -10.27
0  4   -92.10  -91.36  -89.17  -85.07  -78.50  -70.07  -61.16  -52.35  -44.12  -37.72  -32.09  -26.57  -20.98  -15.45  -10.26
0  5   -81.57  -81.31  -80.44  -78.50  -74.57  -68.18  -60.34  -52.01  -43.97  -37.64  -32.04  -26.55  -20.97  -15.44  -10.26
0  6   -71.29  -71.20  -70.87  -70.07  -68.18  -64.32  -58.39  -51.13  -43.58  -37.44  -31.93  -26.49  -20.94  -15.43  -10.26
0  7   -61.64  -61.61  -61.48  -61.16  -60.34  -58.39  -54.71  -49.19  -42.65  -36.94  -31.66  -26.34  -20.86  -15.39  -10.24
0  8   -52.55  -52.54  -52.48  -52.35  -52.01  -51.13  -49.19  -45.70  -40.73  -35.84  -31.03  -25.99  -20.68  -15.31  -10.20
0  9   -44.20  -44.20  -44.18  -44.12  -43.97  -43.58  -42.65  -40.73  -37.50  -33.78  -29.77  -25.27  -20.30  -15.12  -10.12
0 10   -37.76  -37.76  -37.75  -37.72  -37.64  -37.44  -36.94  -35.84  -33.78  -31.12  -27.97  -24.15  -19.67  -14.81   -9.99
0 11   -32.11  -32.11  -32.10  -32.08  -32.04  -31.93  -31.66  -31.03  -29.77  -27.97  -25.66  -22.61  -18.77  -14.34   -9.78
0 12   -26.58  -26.58  -26.58  -26.57  -26.55  -26.49  -26.34  -25.99  -25.27  -24.15  -22.61  -20.40  -17.36  -13.56   -9.41
0 13   -20.98  -20.98  -20.98  -20.98  -20.97  -20.94  -20.86  -20.68  -20.30  -19.67  -18.77  -17.36  -15.23  -12.30   -8.78
0 14   -15.45  -15.45  -15.45  -15.45  -15.44  -15.43  -15.39  -15.31  -15.12  -14.81  -14.34  -13.56  -12.30  -10.34   -7.72
0 15   -10.26  -10.26  -10.26  -10.26  -10.26  -10.25  -10.24  -10.20  -10.12   -9.99   -9.78   -9.41   -8.78   -7.72   -6.09
0 16    -6.10   -6.10   -6.10   -6.10   -6.10   -6.09   -6.09   -6.07   -6.04   -5.99   -5.90   -5.75   -5.48   -4.99   -4.17
0 17    -3.25   -3.25   -3.25   -3.25   -3.25   -3.25   -3.25   -3.24   -3.23   -3.21   -3.18   -3.12   -3.01   -2.81   -2.46
0 18    -1.69   -1.69   -1.69   -1.69   -1.68   -1.68   -1.68   -1.68   -1.68   -1.67   -1.66   -1.63   -1.59   -1.51   -1.36
0 19     -.88    -.88    -.88    -.88    -.88    -.88    -.88    -.88    -.88    -.88    -.87    -.86    -.84    -.81    -.74
0 20     -.47    -.47    -.47    -.47    -.47    -.47    -.46    -.46    -.46    -.46    -.46    -.46    -.45    -.43    -.40
0 21     -.25    -.25    -.25    -.25    -.25    -.25    -.25    -.25    -.24    -.24    -.24    -.24    -.24    -.23    -.22
0 22     -.13    -.13    -.13    -.13    -.13    -.13    -.13    -.13    -.13    -.13    -.13    -.13    -.13    -.12    -.12
0 23     -.07    -.07    -.07    -.07    -.07    -.07    -.07    -.07    -.07    -.07    -.07    -.07    -.07    -.07    -.06
0 24     -.04    -.04    -.04    -.04    -.04    -.04    -.04    -.04    -.04    -.04    -.04    -.04    -.04    -.04    -.04
0 25     -.03    -.03    -.03    -.03    -.03    -.03    -.03    -.03    -.03    -.02    -.02    -.02    -.02    -.02    -.02
1                      HEAD IN LAYER 10 AT END OF TIME STEP 28 IN STRESS PERIOD  1
           -----------------------------------------------------------------------

          16      17      18      19      20      21      22      23      24      25
 ........................................................................................
0  1    -6.10   -3.25   -1.69    -.88    -.47    -.25    -.13    -.07    -.04    -.03
0  2    -6.10   -3.25   -1.69    -.88    -.47    -.25    -.13    -.07    -.04    -.03
0  3    -6.10   -3.25   -1.69    -.88    -.47    -.25    -.13    -.07    -.04    -.03
0  4    -6.10   -3.25   -1.69    -.88    -.47    -.25    -.13    -.07    -.04    -.03
0  5    -6.10   -3.25   -1.69    -.88    -.47    -.25    -.13    -.07    -.04    -.03
0  6    -6.10   -3.25   -1.69    -.88    -.47    -.25    -.13    -.07    -.04    -.03
0  7    -6.09   -3.25   -1.69    -.88    -.46    -.24    -.13    -.07    -.04    -.03
0  8    -6.08   -3.24   -1.68    -.88    -.46    -.24    -.13    -.07    -.04    -.03
0  9    -6.04   -3.23   -1.68    -.88    -.46    -.24    -.13    -.07    -.04    -.02
0 10    -5.99   -3.21   -1.67    -.88    -.46    -.24    -.13    -.07    -.04    -.02
0 11    -5.90   -3.18   -1.66    -.87    -.46    -.24    -.13    -.07    -.04    -.02
0 12    -5.75   -3.12   -1.63    -.86    -.46    -.24    -.13    -.07    -.04    -.02
0 13    -5.48   -3.02   -1.59    -.84    -.45    -.24    -.13    -.07    -.04    -.02
0 14    -4.99   -2.82   -1.51    -.81    -.43    -.23    -.12    -.07    -.04    -.02
0 15    -4.17   -2.46   -1.36    -.74    -.40    -.22    -.12    -.06    -.04    -.02
0 16    -3.05   -1.91   -1.11    -.62    -.35    -.19    -.10    -.06    -.03    -.02
0 17    -1.91   -1.29    -.79    -.47    -.27    -.15    -.08    -.05    -.03    -.02
0 18    -1.11    -.79    -.51    -.32    -.19    -.11    -.06    -.04    -.02    -.01
0 19     -.62    -.47    -.32    -.21    -.13    -.08    -.05    -.03    -.02    -.01
0 20     -.35    -.27    -.19    -.13    -.08    -.05    -.03    -.02    -.01    -.01
0 21     -.19    -.15    -.11    -.08    -.05    -.03    -.02    -.01    -.01    -.01
0 22     -.10    -.08    -.06    -.05    -.03    -.02    -.01    -.01    -.01    -.00
0 23     -.06    -.05    -.04    -.03    -.02    -.01    -.01    -.01    -.00    -.00
0 24     -.03    -.03    -.02    -.02    -.01    -.01    -.01    -.00    -.00    -.00
0 25     -.02    -.02    -.01    -.01    -.01    -.01    -.00    -.00    -.00    -.00
0


                              VOLUMETRIC BUDGET FOR ENTIRE MODEL AT END OF TIME STEP 28 IN STRESS PERIOD  1
                              -----------------------------------------------------------------------------
0                   CUMULATIVE VOLUMES      L**3                                     RATES FOR THIS TIME STEP      L**3/T
                    ------------------                                               ------------------------

                          IN:                                                                    IN:
                          ---                                                                    ---
                            STORAGE =    .30751E+06                                                STORAGE =    .34300    
                      CONSTANT HEAD =    .31093E+06                                          CONSTANT HEAD =    1.2262    
                              WELLS =    .00000                                                      WELLS =    .00000    
0                          TOTAL IN =    .61844E+06                                               TOTAL IN =    1.5692    
0                        OUT:                                                                   OUT:
                         ----                                                                   ----
                            STORAGE =    .00000                                                    STORAGE =    .00000    
                      CONSTANT HEAD =    .00000                                              CONSTANT HEAD =    .00000    
                              WELLS =    .61896E+06                                                  WELLS =    1.5707    
0                         TOTAL OUT =    .61896E+06                                              TOTAL OUT =    1.5707    
0                          IN - OUT =   -521.81                                                   IN - OUT =   -.15427E-02
0               PERCENT DISCREPANCY =                -.08                              PERCENT DISCREPANCY =                -.10



0


          TIME SUMMARY AT END OF TIME STEP 28 IN STRESS PERIOD  1
                               SECONDS        MINUTES         HOURS          DAYS           YEARS
                           ---------------------------------------------------------------------------
      TIME STEP LENGTH         115382.        1923.03        32.0504        1.33544        .365622E-02
    STRESS PERIOD TIME         394057.        6567.62        109.460        4.56084        .124869E-01
 TOTAL SIMULATION TIME         394057.        6567.62        109.460        4.56084        .124869E-01
1
    16 ITERATIONS FOR TIME STEP  29 IN STRESS PERIOD  1
0MAXIMUM HEAD CHANGE FOR EACH ITERATION:
0 HEAD CHANGE LAYER,ROW,COL HEAD CHANGE LAYER,ROW,COL HEAD CHANGE LAYER,ROW,COL HEAD CHANGE LAYER,ROW,COL HEAD CHANGE LAYER,ROW,COL
 ------------------------------------------------------------------------------------------------------------------------------------
   -.1873     (  4, 13, 13)  -.1139     (  4,  9,  4)  -.2001     (  4,  1,  1)  -.2189     ( 10,  1,  7)  -.4024     ( 10,  1,  1)
    .7675E-02 ( 10, 13,  1)   .2504E-01 (  9, 14,  1)   .3060E-01 ( 10, 12,  1)   .1501     ( 10,  1,  1)   .1166E-01 (  9,  1,  1)
    .1848E-02 (  7,  6,  1)   .2689E-02 (  5,  8,  2)   .5757E-02 (  8, 11,  2)   .6795E-02 ( 10,  1,  4)   .1903E-01 ( 10,  1,  1)
   -.2380E-03 ( 10, 13,  4)
0
0HEAD/DRAWDOWN PRINTOUT FLAG = 1     TOTAL BUDGET PRINTOUT FLAG = 1     CELL-BY-CELL FLOW TERM FLAG = 0
 REUSING PREVIOUS VALUES OF IOFLG
1                      HEAD IN LAYER  9 AT END OF TIME STEP 29 IN STRESS PERIOD  1
           -----------------------------------------------------------------------

           1       2       3       4       5       6       7       8       9      10      11      12      13      14      15
 ................................................................................................................................
0  1  -135.72 -116.16 -102.61  -91.75  -81.40  -71.28  -61.76  -52.74  -44.44  -38.03  -32.40  -26.89  -21.31  -15.79  -10.59
0  2  -116.16 -109.62 -100.50  -91.03  -81.14  -71.19  -61.72  -52.73  -44.44  -38.03  -32.40  -26.89  -21.31  -15.79  -10.59
0  3  -102.61 -100.50  -95.70  -88.87  -80.29  -70.86  -61.59  -52.67  -44.41  -38.02  -32.39  -26.89  -21.31  -15.78  -10.59
0  4   -91.75  -91.03  -88.87  -84.83  -78.37  -70.07  -61.27  -52.54  -44.36  -37.99  -32.38  -26.88  -21.31  -15.78  -10.59
0  5   -81.40  -81.14  -80.29  -78.37  -74.50  -68.21  -60.46  -52.20  -44.21  -37.91  -32.33  -26.86  -21.29  -15.78  -10.59
0  6   -71.28  -71.19  -70.86  -70.07  -68.21  -64.40  -58.54  -51.32  -43.82  -37.71  -32.22  -26.80  -21.26  -15.76  -10.58
0  7   -61.76  -61.72  -61.59  -61.27  -60.46  -58.54  -54.88  -49.40  -42.89  -37.21  -31.95  -26.65  -21.19  -15.73  -10.57
0  8   -52.74  -52.73  -52.67  -52.54  -52.20  -51.32  -49.40  -45.93  -40.99  -36.12  -31.32  -26.31  -21.01  -15.64  -10.53
0  9   -44.44  -44.44  -44.41  -44.36  -44.21  -43.82  -42.89  -40.98  -37.77  -34.07  -30.07  -25.58  -20.63  -15.46  -10.45
0 10   -38.03  -38.03  -38.02  -37.99  -37.91  -37.71  -37.21  -36.12  -34.07  -31.41  -28.28  -24.47  -20.00  -15.14  -10.31
0 11   -32.40  -32.40  -32.39  -32.38  -32.33  -32.22  -31.95  -31.32  -30.07  -28.28  -25.98  -22.94  -19.10  -14.68  -10.10
0 12   -26.89  -26.89  -26.89  -26.88  -26.86  -26.80  -26.65  -26.31  -25.58  -24.47  -22.94  -20.73  -17.69  -13.90   -9.74
0 13   -21.31  -21.31  -21.31  -21.30  -21.29  -21.26  -21.19  -21.01  -20.62  -20.00  -19.10  -17.69  -15.57  -12.63   -9.10
0 14   -15.78  -15.78  -15.78  -15.78  -15.78  -15.76  -15.73  -15.64  -15.45  -15.14  -14.67  -13.90  -12.63  -10.67   -8.03
0 15   -10.59  -10.59  -10.59  -10.59  -10.59  -10.58  -10.56  -10.53  -10.45  -10.31  -10.10   -9.73   -9.10   -8.03   -6.39
0 16    -6.39   -6.39   -6.39   -6.39   -6.39   -6.39   -6.38   -6.37   -6.33   -6.28   -6.19   -6.04   -5.77   -5.27   -4.43
0 17    -3.49   -3.49   -3.49   -3.49   -3.49   -3.49   -3.49   -3.48   -3.47   -3.45   -3.41   -3.35   -3.25   -3.04   -2.67
0 18    -1.86   -1.86   -1.86   -1.86   -1.86   -1.86   -1.86   -1.86   -1.86   -1.85   -1.83   -1.81   -1.76   -1.68   -1.52
0 19    -1.01   -1.01   -1.01   -1.01   -1.01   -1.01   -1.01   -1.01   -1.01   -1.00   -1.00    -.99    -.97    -.93    -.85
0 20     -.55    -.55    -.55    -.55    -.55    -.55    -.55    -.55    -.55    -.55    -.55    -.54    -.53    -.51    -.48
0 21     -.30    -.30    -.30    -.30    -.30    -.30    -.30    -.30    -.30    -.30    -.30    -.30    -.29    -.29    -.27
0 22     -.17    -.17    -.17    -.17    -.17    -.17    -.17    -.17    -.17    -.17    -.17    -.17    -.16    -.16    -.15
0 23     -.10    -.10    -.10    -.10    -.10    -.10    -.10    -.10    -.10    -.09    -.09    -.09    -.09    -.09    -.09
0 24     -.06    -.06    -.06    -.06    -.06    -.06    -.06    -.06    -.06    -.06    -.06    -.06    -.06    -.05    -.05
0 25     -.04    -.04    -.04    -.04    -.04    -.04    -.04    -.04    -.04    -.04    -.04    -.04    -.04    -.04    -.04
1                      HEAD IN LAYER  9 AT END OF TIME STEP 29 IN STRESS PERIOD  1
           -----------------------------------------------------------------------

          16      17      18      19      20      21      22      23      24      25
 ........................................................................................
0  1    -6.39   -3.49   -1.87   -1.01    -.55    -.30    -.17    -.09    -.06    -.04
0  2    -6.39   -3.49   -1.87   -1.01    -.55    -.30    -.17    -.09    -.06    -.04
0  3    -6.39   -3.49   -1.87   -1.01    -.55    -.30    -.17    -.09    -.06    -.04
0  4    -6.39   -3.49   -1.87   -1.01    -.55    -.30    -.17    -.09    -.06    -.04
0  5    -6.39   -3.49   -1.87   -1.01    -.55    -.30    -.17    -.09    -.06    -.04
0  6    -6.39   -3.49   -1.87   -1.01    -.55    -.30    -.17    -.09    -.06    -.04
0  7    -6.38   -3.49   -1.86   -1.01    -.55    -.30    -.17    -.09    -.06    -.04
0  8    -6.37   -3.48   -1.86   -1.01    -.55    -.30    -.17    -.09    -.06    -.04
0  9    -6.34   -3.47   -1.86   -1.01    -.55    -.30    -.17    -.09    -.06    -.04
0 10    -6.28   -3.45   -1.85   -1.00    -.55    -.30    -.17    -.09    -.06    -.04
0 11    -6.19   -3.42   -1.84   -1.00    -.55    -.30    -.17    -.09    -.06    -.04
0 12    -6.04   -3.36   -1.81    -.99    -.54    -.30    -.17    -.09    -.06    -.04
0 13    -5.77   -3.25   -1.77    -.97    -.53    -.29    -.16    -.09    -.06    -.04
0 14    -5.27   -3.04   -1.68    -.93    -.52    -.29    -.16    -.09    -.05    -.04
0 15    -4.43   -2.67   -1.52    -.86    -.48    -.27    -.15    -.09    -.05    -.04
0 16    -3.28   -2.11   -1.25    -.73    -.42    -.24    -.14    -.08    -.05    -.03
0 17    -2.11   -1.45    -.91    -.56    -.33    -.19    -.11    -.07    -.04    -.03
0 18    -1.25    -.91    -.61    -.39    -.24    -.15    -.09    -.05    -.03    -.02
0 19     -.73    -.56    -.39    -.26    -.17    -.10    -.06    -.04    -.03    -.02
0 20     -.42    -.33    -.24    -.17    -.11    -.07    -.05    -.03    -.02    -.01
0 21     -.24    -.19    -.15    -.10    -.07    -.05    -.03    -.02    -.01    -.01
0 22     -.14    -.11    -.09    -.06    -.05    -.03    -.02    -.01    -.01    -.01
0 23     -.08    -.07    -.05    -.04    -.03    -.02    -.01    -.01    -.01    -.01
0 24     -.05    -.04    -.03    -.03    -.02    -.01    -.01    -.01    -.01    -.00
0 25     -.03    -.03    -.02    -.02    -.01    -.01    -.01    -.01    -.00    -.00
1                      HEAD IN LAYER 10 AT END OF TIME STEP 29 IN STRESS PERIOD  1
           -----------------------------------------------------------------------

           1       2       3       4       5       6       7       8       9      10      11      12      13      14      15
 ................................................................................................................................
0  1  -136.83 -117.20 -103.53  -92.54  -82.02  -71.74  -62.09  -53.00  -44.65  -38.21  -32.55  -27.02  -21.41  -15.86  -10.64
0  2  -117.20 -110.62 -101.40  -91.81  -81.76  -71.64  -62.05  -52.98  -44.64  -38.20  -32.55  -27.02  -21.41  -15.86  -10.64
0  3  -103.53 -101.40  -96.55  -89.62  -80.89  -71.32  -61.92  -52.93  -44.62  -38.19  -32.54  -27.01  -21.41  -15.86  -10.64
0  4   -92.54  -91.81  -89.62  -85.51  -78.95  -70.51  -61.60  -52.80  -44.56  -38.16  -32.52  -27.01  -21.40  -15.86  -10.64
0  5   -82.02  -81.76  -80.89  -78.95  -75.01  -68.63  -60.78  -52.45  -44.41  -38.09  -32.48  -26.98  -21.39  -15.85  -10.64
0  6   -71.74  -71.64  -71.32  -70.51  -68.63  -64.77  -58.84  -51.57  -44.02  -37.88  -32.37  -26.92  -21.36  -15.84  -10.63
0  7   -62.09  -62.05  -61.92  -61.60  -60.78  -58.84  -55.15  -49.64  -43.09  -37.38  -32.09  -26.77  -21.29  -15.80  -10.62
0  8   -53.00  -52.98  -52.93  -52.80  -52.45  -51.57  -49.64  -46.15  -41.17  -36.28  -31.47  -26.43  -21.11  -15.71  -10.58
0  9   -44.65  -44.64  -44.62  -44.56  -44.41  -44.02  -43.09  -41.17  -37.94  -34.22  -30.21  -25.70  -20.72  -15.53  -10.50
0 10   -38.21  -38.20  -38.19  -38.16  -38.09  -37.88  -37.38  -36.28  -34.22  -31.55  -28.41  -24.58  -20.10  -15.21  -10.36
0 11   -32.55  -32.55  -32.54  -32.52  -32.48  -32.37  -32.09  -31.47  -30.21  -28.41  -26.10  -23.04  -19.19  -14.74  -10.15
0 12   -27.02  -27.02  -27.01  -27.01  -26.98  -26.92  -26.77  -26.43  -25.70  -24.58  -23.04  -20.82  -17.77  -13.96   -9.78
0 13   -21.41  -21.41  -21.41  -21.40  -21.39  -21.36  -21.28  -21.11  -20.72  -20.10  -19.19  -17.77  -15.64  -12.69   -9.15
0 14   -15.86  -15.86  -15.86  -15.85  -15.85  -15.84  -15.80  -15.71  -15.53  -15.21  -14.74  -13.96  -12.69  -10.72   -8.07
0 15   -10.64  -10.64  -10.64  -10.64  -10.64  -10.63  -10.61  -10.58  -10.50  -10.36  -10.15   -9.78   -9.14   -8.07   -6.42
0 16    -6.42   -6.42   -6.42   -6.42   -6.42   -6.42   -6.41   -6.40   -6.36   -6.31   -6.22   -6.07   -5.79   -5.29   -4.45
0 17    -3.51   -3.51   -3.51   -3.51   -3.51   -3.51   -3.50   -3.50   -3.48   -3.46   -3.43   -3.37   -3.26   -3.06   -2.68
0 18    -1.87   -1.87   -1.87   -1.87   -1.87   -1.87   -1.87   -1.87   -1.86   -1.86   -1.84   -1.82   -1.77   -1.69   -1.52
0 19    -1.02   -1.02   -1.02   -1.02   -1.02   -1.02   -1.02   -1.01   -1.01   -1.01   -1.00    -.99    -.97    -.93    -.86
0 20     -.56    -.56    -.56    -.56    -.56    -.56    -.56    -.55    -.55    -.55    -.55    -.54    -.54    -.52    -.48
0 21     -.31    -.31    -.31    -.31    -.31    -.31    -.31    -.31    -.30    -.30    -.30    -.30    -.30    -.29    -.27
0 22     -.17    -.17    -.17    -.17    -.17    -.17    -.17    -.17    -.17    -.17    -.17    -.17    -.16    -.16    -.15
0 23     -.10    -.10    -.10    -.10    -.10    -.10    -.10    -.10    -.10    -.10    -.10    -.09    -.09    -.09    -.09
0 24     -.06    -.06    -.06    -.06    -.06    -.06    -.06    -.06    -.06    -.06    -.06    -.06    -.06    -.05    -.05
0 25     -.04    -.04    -.04    -.04    -.04    -.04    -.04    -.04    -.04    -.04    -.04    -.04    -.04    -.04    -.04
1                      HEAD IN LAYER 10 AT END OF TIME STEP 29 IN STRESS PERIOD  1
           -----------------------------------------------------------------------

          16      17      18      19      20      21      22      23      24      25
 ........................................................................................
0  1    -6.42   -3.51   -1.88   -1.02    -.56    -.31    -.17    -.10    -.06    -.04
0  2    -6.42   -3.51   -1.88   -1.02    -.56    -.31    -.17    -.10    -.06    -.04
0  3    -6.42   -3.51   -1.88   -1.02    -.56    -.31    -.17    -.10    -.06    -.04
0  4    -6.42   -3.51   -1.88   -1.02    -.56    -.31    -.17    -.10    -.06    -.04
0  5    -6.42   -3.51   -1.88   -1.02    -.56    -.31    -.17    -.10    -.06    -.04
0  6    -6.42   -3.51   -1.87   -1.02    -.56    -.31    -.17    -.10    -.06    -.04
0  7    -6.41   -3.51   -1.87   -1.02    -.56    -.31    -.17    -.10    -.06    -.04
0  8    -6.40   -3.50   -1.87   -1.02    -.56    -.30    -.17    -.10    -.06    -.04
0  9    -6.37   -3.49   -1.87   -1.01    -.55    -.30    -.17    -.10    -.06    -.04
0 10    -6.31   -3.47   -1.86   -1.01    -.55    -.30    -.17    -.09    -.06    -.04
0 11    -6.22   -3.43   -1.84   -1.00    -.55    -.30    -.17    -.09    -.06    -.04
0 12    -6.07   -3.37   -1.82    -.99    -.54    -.30    -.17    -.09    -.06    -.04
0 13    -5.79   -3.26   -1.77    -.97    -.54    -.30    -.16    -.09    -.06    -.04
0 14    -5.29   -3.06   -1.69    -.93    -.52    -.29    -.16    -.09    -.05    -.04
0 15    -4.45   -2.68   -1.52    -.86    -.48    -.27    -.15    -.09    -.05    -.04
0 16    -3.30   -2.12   -1.26    -.73    -.42    -.24    -.14    -.08    -.05    -.03
0 17    -2.12   -1.46    -.92    -.56    -.33    -.20    -.11    -.07    -.04    -.03
0 18    -1.26    -.92    -.61    -.39    -.24    -.15    -.09    -.05    -.03    -.02
0 19     -.73    -.56    -.39    -.26    -.17    -.10    -.06    -.04    -.03    -.02
0 20     -.42    -.33    -.24    -.17    -.11    -.07    -.05    -.03    -.02    -.01
0 21     -.24    -.20    -.15    -.10    -.07    -.05    -.03    -.02    -.01    -.01
0 22     -.14    -.11    -.09    -.06    -.05    -.03    -.02    -.01    -.01    -.01
0 23     -.08    -.07    -.05    -.04    -.03    -.02    -.01    -.01    -.01    -.01
0 24     -.05    -.04    -.03    -.03    -.02    -.01    -.01    -.01    -.01    -.00
0 25     -.03    -.03    -.02    -.02    -.01    -.01    -.01    -.01    -.00    -.00
0


                              VOLUMETRIC BUDGET FOR ENTIRE MODEL AT END OF TIME STEP 29 IN STRESS PERIOD  1
                              -----------------------------------------------------------------------------
0                   CUMULATIVE VOLUMES      L**3                                     RATES FOR THIS TIME STEP      L**3/T
                    ------------------                                               ------------------------

                          IN:                                                                    IN:
                          ---                                                                    ---
                            STORAGE =    .33790E+06                                                STORAGE =    .18624    
                      CONSTANT HEAD =    .53661E+06                                          CONSTANT HEAD =    1.3833    
                              WELLS =    .00000                                                      WELLS =    .00000    
0                          TOTAL IN =    .87451E+06                                               TOTAL IN =    1.5695    
0                        OUT:                                                                   OUT:
                         ----                                                                   ----
                            STORAGE =    .00000                                                    STORAGE =    .00000    
                      CONSTANT HEAD =    .00000                                              CONSTANT HEAD =    .00000    
                              WELLS =    .87523E+06                                                  WELLS =    1.5707    
0                         TOTAL OUT =    .87523E+06                                              TOTAL OUT =    1.5707    
0                          IN - OUT =   -718.44                                                   IN - OUT =   -.12052E-02
0               PERCENT DISCREPANCY =                -.08                              PERCENT DISCREPANCY =                -.08



0


          TIME SUMMARY AT END OF TIME STEP 29 IN STRESS PERIOD  1
                               SECONDS        MINUTES         HOURS          DAYS           YEARS
                           ---------------------------------------------------------------------------
      TIME STEP LENGTH         163150.        2719.16        45.3193        1.88831        .516990E-02
    STRESS PERIOD TIME         557207.        9286.78        154.780        6.44915        .176568E-01
 TOTAL SIMULATION TIME         557207.        9286.78        154.780        6.44915        .176568E-01
1
    11 ITERATIONS FOR TIME STEP  30 IN STRESS PERIOD  1
0MAXIMUM HEAD CHANGE FOR EACH ITERATION:
0 HEAD CHANGE LAYER,ROW,COL HEAD CHANGE LAYER,ROW,COL HEAD CHANGE LAYER,ROW,COL HEAD CHANGE LAYER,ROW,COL HEAD CHANGE LAYER,ROW,COL
 ------------------------------------------------------------------------------------------------------------------------------------
   -.8427E-01 (  4, 14, 14)  -.4605E-01 (  4, 10,  4)  -.8246E-01 (  8, 16,  4)  -.1130     (  9,  1,  8)  -.2175     ( 10,  1,  1)
    .3818E-02 ( 10, 13,  2)   .1268E-01 (  9, 14,  1)   .1584E-01 ( 10, 12,  1)   .8052E-01 ( 10,  1,  1)   .8694E-02 (  9,  1,  1)
    .9847E-03 (  7,  6,  1)
0
0HEAD/DRAWDOWN PRINTOUT FLAG = 1     TOTAL BUDGET PRINTOUT FLAG = 1     CELL-BY-CELL FLOW TERM FLAG = 0
 REUSING PREVIOUS VALUES OF IOFLG
1                      HEAD IN LAYER  9 AT END OF TIME STEP 30 IN STRESS PERIOD  1
           -----------------------------------------------------------------------

           1       2       3       4       5       6       7       8       9      10      11      12      13      14      15
 ................................................................................................................................
0  1  -135.97 -116.40 -102.85  -92.00  -81.64  -71.53  -62.00  -52.99  -44.69  -38.28  -32.64  -27.13  -21.55  -16.01  -10.80
0  2  -116.40 -109.86 -100.74  -91.28  -81.39  -71.44  -61.97  -52.97  -44.68  -38.27  -32.64  -27.13  -21.55  -16.01  -10.80
0  3  -102.85 -100.74  -95.95  -89.12  -80.53  -71.11  -61.84  -52.92  -44.66  -38.26  -32.63  -27.13  -21.54  -16.01  -10.80
0  4   -92.00  -91.28  -89.12  -85.08  -78.62  -70.32  -61.52  -52.79  -44.60  -38.23  -32.62  -27.12  -21.54  -16.01  -10.80
0  5   -81.64  -81.39  -80.53  -78.62  -74.75  -68.46  -60.71  -52.45  -44.45  -38.16  -32.58  -27.10  -21.53  -16.00  -10.80
0  6   -71.53  -71.44  -71.11  -70.32  -68.46  -64.65  -58.78  -51.57  -44.06  -37.95  -32.47  -27.04  -21.50  -15.99  -10.79
0  7   -62.00  -61.97  -61.84  -61.52  -60.71  -58.78  -55.13  -49.65  -43.14  -37.45  -32.19  -26.89  -21.42  -15.95  -10.77
0  8   -52.99  -52.97  -52.92  -52.79  -52.45  -51.57  -49.65  -46.18  -41.23  -36.36  -31.57  -26.54  -21.24  -15.87  -10.74
0  9   -44.69  -44.68  -44.66  -44.60  -44.46  -44.06  -43.14  -41.23  -38.01  -34.31  -30.31  -25.82  -20.86  -15.68  -10.66
0 10   -38.28  -38.27  -38.26  -38.23  -38.16  -37.95  -37.45  -36.36  -34.31  -31.65  -28.52  -24.70  -20.24  -15.37  -10.52
0 11   -32.64  -32.64  -32.63  -32.62  -32.58  -32.47  -32.19  -31.57  -30.31  -28.52  -26.22  -23.17  -19.33  -14.90  -10.31
0 12   -27.13  -27.13  -27.13  -27.12  -27.10  -27.04  -26.89  -26.54  -25.82  -24.70  -23.17  -20.96  -17.92  -14.12   -9.94
0 13   -21.55  -21.55  -21.54  -21.54  -21.53  -21.50  -21.42  -21.24  -20.86  -20.23  -19.33  -17.92  -15.79  -12.84   -9.30
0 14   -16.01  -16.01  -16.01  -16.01  -16.00  -15.99  -15.95  -15.86  -15.68  -15.37  -14.90  -14.12  -12.84  -10.87   -8.22
0 15   -10.80  -10.80  -10.80  -10.80  -10.79  -10.79  -10.77  -10.74  -10.66  -10.52  -10.30   -9.94   -9.30   -8.22   -6.57
0 16    -6.57   -6.57   -6.57   -6.57   -6.57   -6.57   -6.56   -6.55   -6.52   -6.46   -6.37   -6.22   -5.94   -5.44   -4.59
0 17    -3.64   -3.64   -3.64   -3.64   -3.64   -3.64   -3.63   -3.63   -3.62   -3.59   -3.56   -3.50   -3.39   -3.18   -2.80
0 18    -1.98   -1.98   -1.98   -1.98   -1.98   -1.98   -1.98   -1.97   -1.97   -1.96   -1.95   -1.92   -1.88   -1.79   -1.62
0 19    -1.09   -1.09   -1.09   -1.09   -1.09   -1.09   -1.09   -1.09   -1.09   -1.09   -1.08   -1.07   -1.05   -1.01    -.93
0 20     -.61    -.61    -.61    -.61    -.61    -.61    -.61    -.61    -.61    -.61    -.61    -.60    -.59    -.57    -.54
0 21     -.35    -.35    -.35    -.35    -.35    -.35    -.35    -.35    -.35    -.34    -.34    -.34    -.34    -.33    -.31
0 22     -.20    -.20    -.20    -.20    -.20    -.20    -.20    -.20    -.20    -.20    -.20    -.20    -.19    -.19    -.18
0 23     -.12    -.12    -.12    -.12    -.12    -.12    -.12    -.12    -.12    -.12    -.12    -.11    -.11    -.11    -.11
0 24     -.07    -.07    -.07    -.07    -.07    -.07    -.07    -.07    -.07    -.07    -.07    -.07    -.07    -.07    -.07
0 25     -.05    -.05    -.05    -.05    -.05    -.05    -.05    -.05    -.05    -.05    -.05    -.05    -.05    -.05    -.05
1                      HEAD IN LAYER  9 AT END OF TIME STEP 30 IN STRESS PERIOD  1
           -----------------------------------------------------------------------

          16      17      18      19      20      21      22      23      24      25
 ........................................................................................
0  1    -6.57   -3.64   -1.98   -1.09    -.61    -.35    -.20    -.12    -.07    -.05
0  2    -6.57   -3.64   -1.98   -1.09    -.61    -.35    -.20    -.12    -.07    -.05
0  3    -6.57   -3.64   -1.98   -1.09    -.61    -.35    -.20    -.12    -.07    -.05
0  4    -6.57   -3.64   -1.98   -1.09    -.61    -.35    -.20    -.12    -.07    -.05
0  5    -6.57   -3.64   -1.98   -1.09    -.61    -.35    -.20    -.12    -.07    -.05
0  6    -6.57   -3.64   -1.98   -1.09    -.61    -.35    -.20    -.12    -.07    -.05
0  7    -6.56   -3.63   -1.98   -1.09    -.61    -.35    -.20    -.12    -.07    -.05
0  8    -6.55   -3.63   -1.97   -1.09    -.61    -.35    -.20    -.12    -.07    -.05
0  9    -6.52   -3.62   -1.97   -1.09    -.61    -.35    -.20    -.12    -.07    -.05
0 10    -6.46   -3.60   -1.96   -1.09    -.61    -.35    -.20    -.12    -.07    -.05
0 11    -6.37   -3.56   -1.95   -1.08    -.61    -.34    -.20    -.12    -.07    -.05
0 12    -6.22   -3.50   -1.92   -1.07    -.60    -.34    -.20    -.12    -.07    -.05
0 13    -5.94   -3.39   -1.88   -1.05    -.59    -.34    -.19    -.11    -.07    -.05
0 14    -5.44   -3.18   -1.79   -1.01    -.57    -.33    -.19    -.11    -.07    -.05
0 15    -4.59   -2.81   -1.62    -.93    -.54    -.31    -.18    -.11    -.07    -.05
0 16    -3.43   -2.23   -1.35    -.80    -.47    -.28    -.16    -.10    -.06    -.04
0 17    -2.23   -1.55   -1.00    -.62    -.38    -.23    -.14    -.08    -.05    -.04
0 18    -1.35   -1.00    -.68    -.44    -.28    -.17    -.11    -.07    -.04    -.03
0 19     -.80    -.62    -.44    -.30    -.20    -.13    -.08    -.05    -.03    -.03
0 20     -.47    -.38    -.28    -.20    -.13    -.09    -.06    -.04    -.03    -.02
0 21     -.28    -.23    -.17    -.13    -.09    -.06    -.04    -.03    -.02    -.02
0 22     -.16    -.14    -.11    -.08    -.06    -.04    -.03    -.02    -.01    -.01
0 23     -.10    -.08    -.07    -.05    -.04    -.03    -.02    -.01    -.01    -.01
0 24     -.06    -.05    -.04    -.03    -.03    -.02    -.01    -.01    -.01    -.01
0 25     -.04    -.04    -.03    -.03    -.02    -.02    -.01    -.01    -.01    -.01
1                      HEAD IN LAYER 10 AT END OF TIME STEP 30 IN STRESS PERIOD  1
           -----------------------------------------------------------------------

           1       2       3       4       5       6       7       8       9      10      11      12      13      14      15
 ................................................................................................................................
0  1  -137.08 -117.44 -103.78  -92.79  -82.27  -71.99  -62.34  -53.24  -44.89  -38.45  -32.79  -27.26  -21.64  -16.08  -10.85
0  2  -117.44 -110.86 -101.65  -92.05  -82.00  -71.89  -62.30  -53.23  -44.89  -38.45  -32.79  -27.26  -21.64  -16.08  -10.85
0  3  -103.78 -101.65  -96.80  -89.86  -81.14  -71.56  -62.17  -53.18  -44.87  -38.44  -32.78  -27.25  -21.64  -16.08  -10.85
0  4   -92.79  -92.05  -89.86  -85.76  -79.19  -70.76  -61.85  -53.04  -44.81  -38.41  -32.77  -27.25  -21.64  -16.08  -10.85
0  5   -82.27  -82.00  -81.14  -79.19  -75.26  -68.87  -61.03  -52.70  -44.66  -38.33  -32.73  -27.22  -21.63  -16.07  -10.85
0  6   -71.99  -71.89  -71.56  -70.76  -68.87  -65.01  -59.09  -51.82  -44.26  -38.12  -32.61  -27.16  -21.60  -16.06  -10.84
0  7   -62.34  -62.30  -62.17  -61.85  -61.03  -59.09  -55.40  -49.88  -43.33  -37.62  -32.34  -27.01  -21.52  -16.02  -10.82
0  8   -53.24  -53.23  -53.18  -53.04  -52.70  -51.82  -49.88  -46.39  -41.42  -36.52  -31.71  -26.67  -21.34  -15.94  -10.79
0  9   -44.89  -44.89  -44.87  -44.81  -44.66  -44.27  -43.33  -41.42  -38.18  -34.47  -30.45  -25.94  -20.95  -15.75  -10.71
0 10   -38.45  -38.45  -38.44  -38.41  -38.33  -38.12  -37.62  -36.52  -34.47  -31.79  -28.64  -24.82  -20.33  -15.44  -10.57
0 11   -32.79  -32.79  -32.78  -32.77  -32.73  -32.61  -32.34  -31.71  -30.45  -28.64  -26.33  -23.28  -19.42  -14.96  -10.35
0 12   -27.26  -27.26  -27.25  -27.24  -27.22  -27.16  -27.01  -26.66  -25.94  -24.82  -23.28  -21.05  -18.00  -14.18   -9.98
0 13   -21.64  -21.64  -21.64  -21.64  -21.63  -21.59  -21.52  -21.34  -20.95  -20.33  -19.42  -18.00  -15.86  -12.90   -9.35
0 14   -16.08  -16.08  -16.08  -16.08  -16.07  -16.06  -16.02  -15.94  -15.75  -15.44  -14.96  -14.18  -12.90  -10.92   -8.26
0 15   -10.85  -10.85  -10.85  -10.85  -10.84  -10.84  -10.82  -10.79  -10.70  -10.57  -10.35   -9.98   -9.34   -8.26   -6.60
0 16    -6.60   -6.60   -6.60   -6.60   -6.60   -6.60   -6.59   -6.58   -6.55   -6.49   -6.40   -6.25   -5.97   -5.46   -4.61
0 17    -3.65   -3.65   -3.65   -3.65   -3.65   -3.65   -3.65   -3.65   -3.63   -3.61   -3.58   -3.52   -3.41   -3.20   -2.82
0 18    -1.99   -1.99   -1.99   -1.99   -1.99   -1.99   -1.98   -1.98   -1.98   -1.97   -1.96   -1.93   -1.88   -1.80   -1.63
0 19    -1.10   -1.10   -1.10   -1.10   -1.10   -1.10   -1.10   -1.10   -1.10   -1.09   -1.09   -1.07   -1.05   -1.01    -.94
0 20     -.62    -.62    -.62    -.62    -.62    -.62    -.62    -.61    -.61    -.61    -.61    -.60    -.59    -.58    -.54
0 21     -.35    -.35    -.35    -.35    -.35    -.35    -.35    -.35    -.35    -.35    -.34    -.34    -.34    -.33    -.31
0 22     -.20    -.20    -.20    -.20    -.20    -.20    -.20    -.20    -.20    -.20    -.20    -.20    -.19    -.19    -.18
0 23     -.12    -.12    -.12    -.12    -.12    -.12    -.12    -.12    -.12    -.12    -.12    -.12    -.11    -.11    -.11
0 24     -.07    -.07    -.07    -.07    -.07    -.07    -.07    -.07    -.07    -.07    -.07    -.07    -.07    -.07    -.07
0 25     -.05    -.05    -.05    -.05    -.05    -.05    -.05    -.05    -.05    -.05    -.05    -.05    -.05    -.05    -.05
1                      HEAD IN LAYER 10 AT END OF TIME STEP 30 IN STRESS PERIOD  1
           -----------------------------------------------------------------------

          16      17      18      19      20      21      22      23      24      25
 ........................................................................................
0  1    -6.60   -3.66   -1.99   -1.10    -.62    -.35    -.20    -.12    -.07    -.05
0  2    -6.60   -3.66   -1.99   -1.10    -.62    -.35    -.20    -.12    -.07    -.05
0  3    -6.60   -3.66   -1.99   -1.10    -.62    -.35    -.20    -.12    -.07    -.05
0  4    -6.60   -3.66   -1.99   -1.10    -.62    -.35    -.20    -.12    -.07    -.05
0  5    -6.60   -3.65   -1.99   -1.10    -.62    -.35    -.20    -.12    -.07    -.05
0  6    -6.60   -3.65   -1.99   -1.10    -.62    -.35    -.20    -.12    -.07    -.05
0  7    -6.59   -3.65   -1.99   -1.10    -.62    -.35    -.20    -.12    -.07    -.05
0  8    -6.58   -3.65   -1.98   -1.10    -.62    -.35    -.20    -.12    -.07    -.05
0  9    -6.55   -3.63   -1.98   -1.10    -.62    -.35    -.20    -.12    -.07    -.05
0 10    -6.49   -3.61   -1.97   -1.09    -.61    -.35    -.20    -.12    -.07    -.05
0 11    -6.40   -3.58   -1.96   -1.09    -.61    -.35    -.20    -.12    -.07    -.05
0 12    -6.25   -3.52   -1.93   -1.08    -.61    -.34    -.20    -.12    -.07    -.05
0 13    -5.97   -3.41   -1.89   -1.06    -.60    -.34    -.20    -.12    -.07    -.05
0 14    -5.47   -3.20   -1.80   -1.02    -.58    -.33    -.19    -.11    -.07    -.05
0 15    -4.61   -2.82   -1.63    -.94    -.54    -.31    -.18    -.11    -.07    -.05
0 16    -3.44   -2.24   -1.35    -.81    -.47    -.28    -.16    -.10    -.06    -.04
0 17    -2.24   -1.56   -1.00    -.62    -.38    -.23    -.14    -.08    -.05    -.04
0 18    -1.35   -1.00    -.68    -.44    -.28    -.17    -.11    -.07    -.04    -.03
0 19     -.80    -.62    -.44    -.30    -.20    -.13    -.08    -.05    -.04    -.03
0 20     -.47    -.38    -.28    -.20    -.13    -.09    -.06    -.04    -.03    -.02
0 21     -.28    -.23    -.17    -.13    -.09    -.06    -.04    -.03    -.02    -.02
0 22     -.16    -.14    -.11    -.08    -.06    -.04    -.03    -.02    -.01    -.01
0 23     -.10    -.08    -.07    -.05    -.04    -.03    -.02    -.01    -.01    -.01
0 24     -.06    -.05    -.04    -.04    -.03    -.02    -.01    -.01    -.01    -.01
0 25     -.04    -.04    -.03    -.03    -.02    -.02    -.01    -.01    -.01    -.01
0


                              VOLUMETRIC BUDGET FOR ENTIRE MODEL AT END OF TIME STEP 30 IN STRESS PERIOD  1
                              -----------------------------------------------------------------------------
0                   CUMULATIVE VOLUMES      L**3                                     RATES FOR THIS TIME STEP      L**3/T
                    ------------------                                               ------------------------

                          IN:                                                                    IN:
                          ---                                                                    ---
                            STORAGE =    .35766E+06                                                STORAGE =    .85673E-01
                      CONSTANT HEAD =    .87926E+06                                          CONSTANT HEAD =    1.4853    
                              WELLS =    .00000                                                      WELLS =    .00000    
0                          TOTAL IN =    .12369E+07                                               TOTAL IN =    1.5710    
0                        OUT:                                                                   OUT:
                         ----                                                                   ----
                            STORAGE =    .00000                                                    STORAGE =    .00000    
                      CONSTANT HEAD =    .00000                                              CONSTANT HEAD =    .00000    
                              WELLS =    .12376E+07                                                  WELLS =    1.5707    
0                         TOTAL OUT =    .12376E+07                                              TOTAL OUT =    1.5707    
0                          IN - OUT =   -669.63                                                   IN - OUT =    .21148E-03
0               PERCENT DISCREPANCY =                -.05                              PERCENT DISCREPANCY =                 .01



0


          TIME SUMMARY AT END OF TIME STEP 30 IN STRESS PERIOD  1
                               SECONDS        MINUTES         HOURS          DAYS           YEARS
                           ---------------------------------------------------------------------------
      TIME STEP LENGTH         230694.        3844.89        64.0815        2.67006        .731024E-02
    STRESS PERIOD TIME         787900.        13131.7        218.861        9.11921        .249670E-01
 TOTAL SIMULATION TIME         787900.        13131.7        218.861        9.11921        .249670E-01
1
