1                    U.S. GEOLOGICAL SURVEY MODULAR FINITE-DIFFERENCE GROUND-WATER MODEL
0hantush verification problem                                                    6/25/91  pfa                                    
    3 LAYERS        25 ROWS        25 COLUMNS
   1 STRESS PERIOD(S) IN SIMULATION
 MODEL TIME UNIT IS SECONDS
0I/O UNITS:
 ELEMENT OF IUNIT:  1  2  3  4  5  6  7  8  9 10 11 12 13 14 15 16 17 18 19 20 21 22 23 24
         I/O UNIT: 11 12  0  0  0  0  0  0 19  0  0 22  0  0  0  0  0  0  0  0  0  0  0  0
0BAS1 -- BASIC MODEL PACKAGE, VERSION 1, 9/1/87 INPUT READ FROM UNIT  1
 ARRAYS RHS AND BUFF WILL SHARE MEMORY.
 START HEAD WILL NOT BE SAVED -- DRAWDOWN CANNOT BE CALCULATED
    16312 ELEMENTS IN X ARRAY ARE USED BY BAS
    16312 ELEMENTS OF X ARRAY USED OUT OF  100000
0BCF1 -- BLOCK-CENTERED FLOW PACKAGE, VERSION 1, 9/1/87 INPUT READ FROM UNIT 11
 TRANSIENT SIMULATION
      LAYER  AQUIFER TYPE
      -------------------
         1         0
         2         0
         3         0
     1878 ELEMENTS IN X ARRAY ARE USED BY BCF
    18190 ELEMENTS OF X ARRAY USED OUT OF  100000
0WEL1 -- WELL PACKAGE, VERSION 1, 9/1/87 INPUT READ FROM 12
 MAXIMUM OF    1 WELLS
        4 ELEMENTS IN X ARRAY ARE USED FOR WELLS
    18194 ELEMENTS OF X ARRAY USED OUT OF  100000
0SIP1 -- STRONGLY IMPLICIT PROCEDURE SOLUTION PACKAGE, VERSION 1, 9/1/87 INPUT READ FROM UNIT 19
 MAXIMUM OF  50 ITERATIONS ALLOWED FOR CLOSURE
  5 ITERATION PARAMETERS
     7705 ELEMENTS IN X ARRAY ARE USED BY SIP
    25899 ELEMENTS OF X ARRAY USED OUT OF  100000
1hantush verification problem                                                    6/25/91  pfa                                    
0                                                              BOUNDARY ARRAY =             -1 FOR LAYER  1
0                                                              BOUNDARY ARRAY =              1 FOR LAYER  2
0                                                              BOUNDARY ARRAY =              1 FOR LAYER  3
0AQUIFER HEAD WILL BE SET TO  999.00     AT ALL NO-FLOW NODES (IBOUND=0).
0                                                                INITIAL HEAD =   .0000000     FOR LAYER  1
0                                                                INITIAL HEAD =   .0000000     FOR LAYER  2
0                                                                INITIAL HEAD =   .0000000     FOR LAYER  3
0HEAD PRINT FORMAT IS FORMAT NUMBER  -4    DRAWDOWN PRINT FORMAT IS FORMAT NUMBER   0
0HEADS WILL BE SAVED ON UNIT  0    DRAWDOWNS WILL BE SAVED ON UNIT  0
0OUTPUT CONTROL IS SPECIFIED EVERY TIME STEP
0                                                    COLUMN TO ROW ANISOTROPY =   1.000000    
0


                                                  DELR WILL BE READ ON UNIT 11 USING FORMAT: (7G11.4)            
                              -------------------------------------------------------------------------------

   1.0000       1.5000       2.0000       3.0000       5.0000       8.0000       12.000       18.000       25.000       25.000    
   34.800       46.200       69.000       100.00       150.00       200.00       250.00       250.00       250.00       250.00    
   250.00       250.00       250.00       250.00       300.00    
0


                                                  DELC WILL BE READ ON UNIT 11 USING FORMAT: (7G11.4)            
                              -------------------------------------------------------------------------------

   1.0000       1.5000       2.0000       3.0000       5.0000       8.0000       12.000       18.000       25.000       25.000    
   34.800       46.200       69.000       100.00       150.00       200.00       250.00       250.00       250.00       250.00    
   250.00       250.00       250.00       250.00       300.00    
0                                                        PRIMARY STORAGE COEF =   .2000000E-03 FOR LAYER  1
0                                                        TRANSMIS. ALONG ROWS =   .2000000E-02 FOR LAYER  1
0                                                    VERT HYD COND /THICKNESS =   .4000000E-06 FOR LAYER  1
0                                                        PRIMARY STORAGE COEF =   .8000000E-01 FOR LAYER  2
0                                                        TRANSMIS. ALONG ROWS =   .5000000E-03 FOR LAYER  2
0                                                    VERT HYD COND /THICKNESS =   .3960000E-06 FOR LAYER  2
0                                                        PRIMARY STORAGE COEF =   .5000000E-02 FOR LAYER  3
0                                                        TRANSMIS. ALONG ROWS =   .5000000E-01 FOR LAYER  3
0


                                                         SOLUTION BY THE STRONGLY IMPLICIT PROCEDURE
                                                         -------------------------------------------
0                                               MAXIMUM ITERATIONS ALLOWED FOR CLOSURE =       50
                                                                ACCELERATION PARAMETER =     1.0000    
                                                     HEAD CHANGE CRITERION FOR CLOSURE =     .10000E-02
                                                     SIP HEAD CHANGE PRINTOUT INTERVAL =        1
0                                                    CALCULATE ITERATION PARAMETERS FROM MODEL CALCULATED WSEED
1                                                   STRESS PERIOD NO.   1, LENGTH =   787900.0    
                                                    ----------------------------------------------

                                                    NUMBER OF TIME STEPS =    30

                                                     MULTIPLIER FOR DELT =     1.414

                                                  INITIAL TIME STEP SIZE =   10.00005    
0             1 WELLS
                                                LAYER    ROW    COL    STRESS RATE   WELL NO.
                                                ---------------------------------------------
                                                  3       1      1     -1.5707           1
0AVERAGE SEED =  .00046407
 MINIMUM SEED =  .00000012
0
    5 ITERATION PARAMETERS CALCULATED FROM AVERAGE SEED:

             .0000000E+00   .8532274E+00   .9784578E+00   .9968382E+00   .9995359E+00
0
    14 ITERATIONS FOR TIME STEP   1 IN STRESS PERIOD  1
0MAXIMUM HEAD CHANGE FOR EACH ITERATION:
0 HEAD CHANGE LAYER,ROW,COL HEAD CHANGE LAYER,ROW,COL HEAD CHANGE LAYER,ROW,COL HEAD CHANGE LAYER,ROW,COL HEAD CHANGE LAYER,ROW,COL
 ------------------------------------------------------------------------------------------------------------------------------------
   -32.43     (  3,  1,  1)  -11.10     (  3,  1,  2)  -13.17     (  3,  2,  1)   1.061     (  3,  5,  4)  -.5145     (  3,  4,  1)
   -.1173     (  3,  1,  4)  -.2554     (  3,  1,  1)  -.1305     (  3,  1,  1)  -.6053E-01 (  3,  4,  1)  -.1139E-01 (  3,  1,  1)
   -.3816E-02 (  3,  4,  1)  -.3578E-02 (  3,  3,  2)  -.6135E-02 (  3,  1,  1)   .3443E-03 (  3,  5,  4)
0
0HEAD/DRAWDOWN PRINTOUT FLAG = 1     TOTAL BUDGET PRINTOUT FLAG = 1     CELL-BY-CELL FLOW TERM FLAG = 0
0OUTPUT FLAGS FOR EACH LAYER:
          HEAD    DRAWDOWN  HEAD  DRAWDOWN
 LAYER  PRINTOUT  PRINTOUT  SAVE    SAVE
 -----------------------------------------
    1       0         0       0       0
    2       0         0       0       0
    3       1         0       0       0
1                      HEAD IN LAYER  3 AT END OF TIME STEP  1 IN STRESS PERIOD  1
           -----------------------------------------------------------------------

           1       2       3       4       5       6       7       8       9      10      11      12      13      14      15
 ................................................................................................................................
0  1   -57.42  -38.15  -25.38  -16.07   -8.67   -3.61   -1.09    -.21    -.03    -.00     .00     .00     .00     .00     .00
0  2   -38.15  -31.85  -23.46  -15.49   -8.51   -3.58   -1.08    -.21    -.03    -.00     .00     .00     .00     .00     .00
0  3   -25.38  -23.46  -19.29  -13.82   -7.99   -3.45   -1.06    -.21    -.02    -.00     .00     .00     .00     .00     .00
0  4   -16.07  -15.49  -13.82  -10.90   -6.89   -3.16   -1.00    -.20    -.02    -.00     .00     .00     .00     .00     .00
0  5    -8.67   -8.51   -7.99   -6.89   -4.93   -2.54    -.87    -.18    -.02    -.00     .00     .00     .00     .00     .00
0  6    -3.61   -3.58   -3.45   -3.16   -2.54   -1.54    -.61    -.14    -.02    -.00     .00     .00     .00     .00     .00
0  7    -1.09   -1.08   -1.06   -1.00    -.87    -.61    -.29    -.08    -.01    -.00     .00     .00     .00     .00     .00
0  8     -.21    -.21    -.21    -.20    -.18    -.14    -.08    -.03    -.01     .00     .00     .00     .00     .00     .00
0  9     -.03    -.03    -.02    -.02    -.02    -.02    -.01    -.01    -.00     .00     .00     .00     .00     .00     .00
0 10     -.00    -.00    -.00    -.00    -.00    -.00    -.00     .00     .00     .00     .00     .00     .00     .00     .00
0 11      .00     .00     .00     .00     .00     .00     .00     .00     .00     .00     .00     .00     .00     .00     .00
0 12      .00     .00     .00     .00     .00     .00     .00     .00     .00     .00     .00     .00     .00     .00     .00
0 13      .00     .00     .00     .00     .00     .00     .00     .00     .00     .00     .00     .00     .00     .00     .00
0 14      .00     .00     .00     .00     .00     .00     .00     .00     .00     .00     .00     .00     .00     .00     .00
0 15      .00     .00     .00     .00     .00     .00     .00     .00     .00     .00     .00     .00     .00     .00     .00
0 16      .00     .00     .00     .00     .00     .00     .00     .00     .00     .00     .00     .00     .00     .00     .00
0 17      .00     .00     .00     .00     .00     .00     .00     .00     .00     .00     .00     .00     .00     .00     .00
0 18      .00     .00     .00     .00     .00     .00     .00     .00     .00     .00     .00     .00     .00     .00     .00
0 19      .00     .00     .00     .00     .00     .00     .00     .00     .00     .00     .00     .00     .00     .00     .00
0 20      .00     .00     .00     .00     .00     .00     .00     .00     .00     .00     .00     .00     .00     .00     .00
0 21      .00     .00     .00     .00     .00     .00     .00     .00     .00     .00     .00     .00     .00     .00     .00
0 22      .00     .00     .00     .00     .00     .00     .00     .00     .00     .00     .00     .00     .00     .00     .00
0 23      .00     .00     .00     .00     .00     .00     .00     .00     .00     .00     .00     .00     .00     .00     .00
0 24      .00     .00     .00     .00     .00     .00     .00     .00     .00     .00     .00     .00     .00     .00     .00
0 25      .00     .00     .00     .00     .00     .00     .00     .00     .00     .00     .00     .00     .00     .00     .00
1                      HEAD IN LAYER  3 AT END OF TIME STEP  1 IN STRESS PERIOD  1
           -----------------------------------------------------------------------

          16      17      18      19      20      21      22      23      24      25
 ........................................................................................
0  1      .00     .00     .00     .00     .00     .00     .00     .00     .00     .00
0  2      .00     .00     .00     .00     .00     .00     .00     .00     .00     .00
0  3      .00     .00     .00     .00     .00     .00     .00     .00     .00     .00
0  4      .00     .00     .00     .00     .00     .00     .00     .00     .00     .00
0  5      .00     .00     .00     .00     .00     .00     .00     .00     .00     .00
0  6      .00     .00     .00     .00     .00     .00     .00     .00     .00     .00
0  7      .00     .00     .00     .00     .00     .00     .00     .00     .00     .00
0  8      .00     .00     .00     .00     .00     .00     .00     .00     .00     .00
0  9      .00     .00     .00     .00     .00     .00     .00     .00     .00     .00
0 10      .00     .00     .00     .00     .00     .00     .00     .00     .00     .00
0 11      .00     .00     .00     .00     .00     .00     .00     .00     .00     .00
0 12      .00     .00     .00     .00     .00     .00     .00     .00     .00     .00
0 13      .00     .00     .00     .00     .00     .00     .00     .00     .00     .00
0 14      .00     .00     .00     .00     .00     .00     .00     .00     .00     .00
0 15      .00     .00     .00     .00     .00     .00     .00     .00     .00     .00
0 16      .00     .00     .00     .00     .00     .00     .00     .00     .00     .00
0 17      .00     .00     .00     .00     .00     .00     .00     .00     .00     .00
0 18      .00     .00     .00     .00     .00     .00     .00     .00     .00     .00
0 19      .00     .00     .00     .00     .00     .00     .00     .00     .00     .00
0 20      .00     .00     .00     .00     .00     .00     .00     .00     .00     .00
0 21      .00     .00     .00     .00     .00     .00     .00     .00     .00     .00
0 22      .00     .00     .00     .00     .00     .00     .00     .00     .00     .00
0 23      .00     .00     .00     .00     .00     .00     .00     .00     .00     .00
0 24      .00     .00     .00     .00     .00     .00     .00     .00     .00     .00
0 25      .00     .00     .00     .00     .00     .00     .00     .00     .00     .00
0


                              VOLUMETRIC BUDGET FOR ENTIRE MODEL AT END OF TIME STEP  1 IN STRESS PERIOD  1
                              -----------------------------------------------------------------------------
0                   CUMULATIVE VOLUMES      L**3                                     RATES FOR THIS TIME STEP      L**3/T
                    ------------------                                               ------------------------

                          IN:                                                                    IN:
                          ---                                                                    ---
                            STORAGE =    15.708                                                    STORAGE =    1.5708    
                      CONSTANT HEAD =    .62148E-06                                          CONSTANT HEAD =    .62148E-07
                              WELLS =    .00000                                                      WELLS =    .00000    
0                          TOTAL IN =    15.708                                                   TOTAL IN =    1.5708    
0                        OUT:                                                                   OUT:
                         ----                                                                   ----
                            STORAGE =    .00000                                                    STORAGE =    .00000    
                      CONSTANT HEAD =    .00000                                              CONSTANT HEAD =    .00000    
                              WELLS =    15.708                                                      WELLS =    1.5707    
0                         TOTAL OUT =    15.708                                                  TOTAL OUT =    1.5707    
0                          IN - OUT =    .37193E-04                                               IN - OUT =    .38147E-05
0               PERCENT DISCREPANCY =                 .00                              PERCENT DISCREPANCY =                 .00



0


          TIME SUMMARY AT END OF TIME STEP  1 IN STRESS PERIOD  1
                               SECONDS        MINUTES         HOURS          DAYS           YEARS
                           ---------------------------------------------------------------------------
      TIME STEP LENGTH         10.0001        .166668        .277779E-02    .115741E-03    .316882E-06
    STRESS PERIOD TIME         10.0001        .166668        .277779E-02    .115741E-03    .316882E-06
 TOTAL SIMULATION TIME         10.0001        .166668        .277779E-02    .115741E-03    .316882E-06
1
    14 ITERATIONS FOR TIME STEP   2 IN STRESS PERIOD  1
0MAXIMUM HEAD CHANGE FOR EACH ITERATION:
0 HEAD CHANGE LAYER,ROW,COL HEAD CHANGE LAYER,ROW,COL HEAD CHANGE LAYER,ROW,COL HEAD CHANGE LAYER,ROW,COL HEAD CHANGE LAYER,ROW,COL
 ------------------------------------------------------------------------------------------------------------------------------------
   -1.998     (  3,  1,  1)  -3.376     (  3,  2,  2)  -6.764     (  3,  1,  1)   .4014     (  3,  5,  5)   .1898     (  3,  1,  1)
   -.5624E-01 (  3,  1,  5)  -.1173     (  3,  1,  1)  -.8624E-01 (  3,  1,  2)  -.5276E-01 (  3,  3,  1)   .5996E-02 (  3,  6,  1)
   -.1793E-02 (  3,  4,  1)  -.2057E-02 (  3,  2,  2)  -.4045E-02 (  3,  1,  1)   .2365E-03 (  3,  5,  5)
0
0HEAD/DRAWDOWN PRINTOUT FLAG = 1     TOTAL BUDGET PRINTOUT FLAG = 1     CELL-BY-CELL FLOW TERM FLAG = 0
 REUSING PREVIOUS VALUES OF IOFLG
1                      HEAD IN LAYER  3 AT END OF TIME STEP  2 IN STRESS PERIOD  1
           -----------------------------------------------------------------------

           1       2       3       4       5       6       7       8       9      10      11      12      13      14      15
 ................................................................................................................................
0  1   -69.47  -49.89  -36.40  -25.86  -16.42   -8.59   -3.44    -.93    -.16    -.02    -.00     .00     .00     .00     .00
0  2   -49.89  -43.36  -34.32  -25.17  -16.20   -8.53   -3.43    -.93    -.16    -.02    -.00     .00     .00     .00     .00
0  3   -36.40  -34.32  -29.64  -23.14  -15.47   -8.31   -3.37    -.92    -.16    -.02    -.00     .00     .00     .00     .00
0  4   -25.86  -25.17  -23.14  -19.44  -13.89   -7.80   -3.24    -.90    -.16    -.02    -.00     .00     .00     .00     .00
0  5   -16.42  -16.20  -15.47  -13.89  -10.87   -6.64   -2.92    -.84    -.15    -.02    -.00     .00     .00     .00     .00
0  6    -8.59   -8.53   -8.31   -7.80   -6.64   -4.57   -2.25    -.70    -.13    -.02    -.00     .00     .00     .00     .00
0  7    -3.44   -3.43   -3.37   -3.24   -2.92   -2.25   -1.28    -.46    -.09    -.02    -.00     .00     .00     .00     .00
0  8     -.93    -.93    -.92    -.90    -.84    -.70    -.46    -.19    -.05    -.01    -.00     .00     .00     .00     .00
0  9     -.16    -.16    -.16    -.16    -.15    -.13    -.09    -.05    -.01    -.00     .00     .00     .00     .00     .00
0 10     -.02    -.02    -.02    -.02    -.02    -.02    -.02    -.01    -.00     .00     .00     .00     .00     .00     .00
0 11     -.00    -.00    -.00    -.00    -.00    -.00    -.00    -.00     .00     .00     .00     .00     .00     .00     .00
0 12      .00     .00     .00     .00     .00     .00     .00     .00     .00     .00     .00     .00     .00     .00     .00
0 13      .00     .00     .00     .00     .00     .00     .00     .00     .00     .00     .00     .00     .00     .00     .00
0 14      .00     .00     .00     .00     .00     .00     .00     .00     .00     .00     .00     .00     .00     .00     .00
0 15      .00     .00     .00     .00     .00     .00     .00     .00     .00     .00     .00     .00     .00     .00     .00
0 16      .00     .00     .00     .00     .00     .00     .00     .00     .00     .00     .00     .00     .00     .00     .00
0 17      .00     .00     .00     .00     .00     .00     .00     .00     .00     .00     .00     .00     .00     .00     .00
0 18      .00     .00     .00     .00     .00     .00     .00     .00     .00     .00     .00     .00     .00     .00     .00
0 19      .00     .00     .00     .00     .00     .00     .00     .00     .00     .00     .00     .00     .00     .00     .00
0 20      .00     .00     .00     .00     .00     .00     .00     .00     .00     .00     .00     .00     .00     .00     .00
0 21      .00     .00     .00     .00     .00     .00     .00     .00     .00     .00     .00     .00     .00     .00     .00
0 22      .00     .00     .00     .00     .00     .00     .00     .00     .00     .00     .00     .00     .00     .00     .00
0 23      .00     .00     .00     .00     .00     .00     .00     .00     .00     .00     .00     .00     .00     .00     .00
0 24      .00     .00     .00     .00     .00     .00     .00     .00     .00     .00     .00     .00     .00     .00     .00
0 25      .00     .00     .00     .00     .00     .00     .00     .00     .00     .00     .00     .00     .00     .00     .00
1                      HEAD IN LAYER  3 AT END OF TIME STEP  2 IN STRESS PERIOD  1
           -----------------------------------------------------------------------

          16      17      18      19      20      21      22      23      24      25
 ........................................................................................
0  1      .00     .00     .00     .00     .00     .00     .00     .00     .00     .00
0  2      .00     .00     .00     .00     .00     .00     .00     .00     .00     .00
0  3      .00     .00     .00     .00     .00     .00     .00     .00     .00     .00
0  4      .00     .00     .00     .00     .00     .00     .00     .00     .00     .00
0  5      .00     .00     .00     .00     .00     .00     .00     .00     .00     .00
0  6      .00     .00     .00     .00     .00     .00     .00     .00     .00     .00
0  7      .00     .00     .00     .00     .00     .00     .00     .00     .00     .00
0  8      .00     .00     .00     .00     .00     .00     .00     .00     .00     .00
0  9      .00     .00     .00     .00     .00     .00     .00     .00     .00     .00
0 10      .00     .00     .00     .00     .00     .00     .00     .00     .00     .00
0 11      .00     .00     .00     .00     .00     .00     .00     .00     .00     .00
0 12      .00     .00     .00     .00     .00     .00     .00     .00     .00     .00
0 13      .00     .00     .00     .00     .00     .00     .00     .00     .00     .00
0 14      .00     .00     .00     .00     .00     .00     .00     .00     .00     .00
0 15      .00     .00     .00     .00     .00     .00     .00     .00     .00     .00
0 16      .00     .00     .00     .00     .00     .00     .00     .00     .00     .00
0 17      .00     .00     .00     .00     .00     .00     .00     .00     .00     .00
0 18      .00     .00     .00     .00     .00     .00     .00     .00     .00     .00
0 19      .00     .00     .00     .00     .00     .00     .00     .00     .00     .00
0 20      .00     .00     .00     .00     .00     .00     .00     .00     .00     .00
0 21      .00     .00     .00     .00     .00     .00     .00     .00     .00     .00
0 22      .00     .00     .00     .00     .00     .00     .00     .00     .00     .00
0 23      .00     .00     .00     .00     .00     .00     .00     .00     .00     .00
0 24      .00     .00     .00     .00     .00     .00     .00     .00     .00     .00
0 25      .00     .00     .00     .00     .00     .00     .00     .00     .00     .00
0


                              VOLUMETRIC BUDGET FOR ENTIRE MODEL AT END OF TIME STEP  2 IN STRESS PERIOD  1
                              -----------------------------------------------------------------------------
0                   CUMULATIVE VOLUMES      L**3                                     RATES FOR THIS TIME STEP      L**3/T
                    ------------------                                               ------------------------

                          IN:                                                                    IN:
                          ---                                                                    ---
                            STORAGE =    37.918                                                    STORAGE =    1.5707    
                      CONSTANT HEAD =    .44976E-05                                          CONSTANT HEAD =    .27412E-06
                              WELLS =    .00000                                                      WELLS =    .00000    
0                          TOTAL IN =    37.918                                                   TOTAL IN =    1.5707    
0                        OUT:                                                                   OUT:
                         ----                                                                   ----
                            STORAGE =    .00000                                                    STORAGE =    .00000    
                      CONSTANT HEAD =    .00000                                              CONSTANT HEAD =    .00000    
                              WELLS =    37.918                                                      WELLS =    1.5707    
0                         TOTAL OUT =    37.918                                                  TOTAL OUT =    1.5707    
0                          IN - OUT =   -.61035E-04                                               IN - OUT =   -.67949E-05
0               PERCENT DISCREPANCY =                 .00                              PERCENT DISCREPANCY =                 .00



0


          TIME SUMMARY AT END OF TIME STEP  2 IN STRESS PERIOD  1
                               SECONDS        MINUTES         HOURS          DAYS           YEARS
                           ---------------------------------------------------------------------------
      TIME STEP LENGTH         14.1401        .235668        .392780E-02    .163658E-03    .448072E-06
    STRESS PERIOD TIME         24.1401        .402335        .670559E-02    .279400E-03    .764954E-06
 TOTAL SIMULATION TIME         24.1401        .402335        .670559E-02    .279400E-03    .764954E-06
1
    14 ITERATIONS FOR TIME STEP   3 IN STRESS PERIOD  1
0MAXIMUM HEAD CHANGE FOR EACH ITERATION:
0 HEAD CHANGE LAYER,ROW,COL HEAD CHANGE LAYER,ROW,COL HEAD CHANGE LAYER,ROW,COL HEAD CHANGE LAYER,ROW,COL HEAD CHANGE LAYER,ROW,COL
 ------------------------------------------------------------------------------------------------------------------------------------
   -1.541     (  3,  5,  6)  -1.876     (  3,  3,  4)  -4.585     (  3,  1,  1)  -.2751     (  3,  1,  1)  -.1052     (  3,  6,  1)
   -.4520E-01 (  3,  1,  5)  -.9879E-01 (  3,  1,  1)  -.7775E-01 (  3,  1,  2)  -.6123E-01 (  3,  3,  1)   .8004E-02 (  3,  6,  1)
   -.1730E-02 (  3,  4,  1)  -.2116E-02 (  3,  2,  2)  -.4687E-02 (  3,  1,  1)   .2783E-03 (  3,  5,  5)
0
0HEAD/DRAWDOWN PRINTOUT FLAG = 1     TOTAL BUDGET PRINTOUT FLAG = 1     CELL-BY-CELL FLOW TERM FLAG = 0
 REUSING PREVIOUS VALUES OF IOFLG
1                      HEAD IN LAYER  3 AT END OF TIME STEP  3 IN STRESS PERIOD  1
           -----------------------------------------------------------------------

           1       2       3       4       5       6       7       8       9      10      11      12      13      14      15
 ................................................................................................................................
0  1   -76.54  -56.93  -43.34  -32.54  -22.52  -13.51   -6.60   -2.34    -.55    -.12    -.02    -.00     .00     .00     .00
0  2   -56.93  -50.37  -41.23  -31.83  -22.28  -13.43   -6.58   -2.33    -.55    -.12    -.02    -.00     .00     .00     .00
0  3   -43.34  -41.23  -36.45  -29.71  -21.48  -13.17   -6.50   -2.31    -.55    -.11    -.02    -.00     .00     .00     .00
0  4   -32.54  -31.83  -29.71  -25.79  -19.72  -12.53   -6.31   -2.27    -.54    -.11    -.02    -.00     .00     .00     .00
0  5   -22.52  -22.28  -21.48  -19.72  -16.25  -11.06   -5.83   -2.15    -.52    -.11    -.02    -.00     .00     .00     .00
0  6   -13.51  -13.43  -13.17  -12.53  -11.06   -8.29   -4.76   -1.88    -.47    -.10    -.02    -.00     .00     .00     .00
0  7    -6.60   -6.58   -6.50   -6.31   -5.83   -4.76   -3.08   -1.35    -.37    -.08    -.01    -.00     .00     .00     .00
0  8    -2.34   -2.33   -2.31   -2.27   -2.15   -1.88   -1.35    -.69    -.22    -.05    -.01     .00     .00     .00     .00
0  9     -.55    -.55    -.55    -.54    -.52    -.47    -.37    -.22    -.08    -.02    -.00     .00     .00     .00     .00
0 10     -.12    -.12    -.11    -.11    -.11    -.10    -.08    -.05    -.02    -.01    -.00     .00     .00     .00     .00
0 11     -.02    -.02    -.02    -.02    -.02    -.02    -.01    -.01    -.00    -.00     .00     .00     .00     .00     .00
0 12     -.00    -.00    -.00    -.00    -.00    -.00    -.00     .00     .00     .00     .00     .00     .00     .00     .00
0 13      .00     .00     .00     .00     .00     .00     .00     .00     .00     .00     .00     .00     .00     .00     .00
0 14      .00     .00     .00     .00     .00     .00     .00     .00     .00     .00     .00     .00     .00     .00     .00
0 15      .00     .00     .00     .00     .00     .00     .00     .00     .00     .00     .00     .00     .00     .00     .00
0 16      .00     .00     .00     .00     .00     .00     .00     .00     .00     .00     .00     .00     .00     .00     .00
0 17      .00     .00     .00     .00     .00     .00     .00     .00     .00     .00     .00     .00     .00     .00     .00
0 18      .00     .00     .00     .00     .00     .00     .00     .00     .00     .00     .00     .00     .00     .00     .00
0 19      .00     .00     .00     .00     .00     .00     .00     .00     .00     .00     .00     .00     .00     .00     .00
0 20      .00     .00     .00     .00     .00     .00     .00     .00     .00     .00     .00     .00     .00     .00     .00
0 21      .00     .00     .00     .00     .00     .00     .00     .00     .00     .00     .00     .00     .00     .00     .00
0 22      .00     .00     .00     .00     .00     .00     .00     .00     .00     .00     .00     .00     .00     .00     .00
0 23      .00     .00     .00     .00     .00     .00     .00     .00     .00     .00     .00     .00     .00     .00     .00
0 24      .00     .00     .00     .00     .00     .00     .00     .00     .00     .00     .00     .00     .00     .00     .00
0 25      .00     .00     .00     .00     .00     .00     .00     .00     .00     .00     .00     .00     .00     .00     .00
1                      HEAD IN LAYER  3 AT END OF TIME STEP  3 IN STRESS PERIOD  1
           -----------------------------------------------------------------------

          16      17      18      19      20      21      22      23      24      25
 ........................................................................................
0  1      .00     .00     .00     .00     .00     .00     .00     .00     .00     .00
0  2      .00     .00     .00     .00     .00     .00     .00     .00     .00     .00
0  3      .00     .00     .00     .00     .00     .00     .00     .00     .00     .00
0  4      .00     .00     .00     .00     .00     .00     .00     .00     .00     .00
0  5      .00     .00     .00     .00     .00     .00     .00     .00     .00     .00
0  6      .00     .00     .00     .00     .00     .00     .00     .00     .00     .00
0  7      .00     .00     .00     .00     .00     .00     .00     .00     .00     .00
0  8      .00     .00     .00     .00     .00     .00     .00     .00     .00     .00
0  9      .00     .00     .00     .00     .00     .00     .00     .00     .00     .00
0 10      .00     .00     .00     .00     .00     .00     .00     .00     .00     .00
0 11      .00     .00     .00     .00     .00     .00     .00     .00     .00     .00
0 12      .00     .00     .00     .00     .00     .00     .00     .00     .00     .00
0 13      .00     .00     .00     .00     .00     .00     .00     .00     .00     .00
0 14      .00     .00     .00     .00     .00     .00     .00     .00     .00     .00
0 15      .00     .00     .00     .00     .00     .00     .00     .00     .00     .00
0 16      .00     .00     .00     .00     .00     .00     .00     .00     .00     .00
0 17      .00     .00     .00     .00     .00     .00     .00     .00     .00     .00
0 18      .00     .00     .00     .00     .00     .00     .00     .00     .00     .00
0 19      .00     .00     .00     .00     .00     .00     .00     .00     .00     .00
0 20      .00     .00     .00     .00     .00     .00     .00     .00     .00     .00
0 21      .00     .00     .00     .00     .00     .00     .00     .00     .00     .00
0 22      .00     .00     .00     .00     .00     .00     .00     .00     .00     .00
0 23      .00     .00     .00     .00     .00     .00     .00     .00     .00     .00
0 24      .00     .00     .00     .00     .00     .00     .00     .00     .00     .00
0 25      .00     .00     .00     .00     .00     .00     .00     .00     .00     .00
0


                              VOLUMETRIC BUDGET FOR ENTIRE MODEL AT END OF TIME STEP  3 IN STRESS PERIOD  1
                              -----------------------------------------------------------------------------
0                   CUMULATIVE VOLUMES      L**3                                     RATES FOR THIS TIME STEP      L**3/T
                    ------------------                                               ------------------------

                          IN:                                                                    IN:
                          ---                                                                    ---
                            STORAGE =    69.323                                                    STORAGE =    1.5707    
                      CONSTANT HEAD =    .20924E-04                                          CONSTANT HEAD =    .82154E-06
                              WELLS =    .00000                                                      WELLS =    .00000    
0                          TOTAL IN =    69.323                                                   TOTAL IN =    1.5707    
0                        OUT:                                                                   OUT:
                         ----                                                                   ----
                            STORAGE =    .00000                                                    STORAGE =    .00000    
                      CONSTANT HEAD =    .00000                                              CONSTANT HEAD =    .00000    
                              WELLS =    69.324                                                      WELLS =    1.5707    
0                         TOTAL OUT =    69.324                                                  TOTAL OUT =    1.5707    
0                          IN - OUT =   -.40436E-03                                               IN - OUT =   -.17524E-04
0               PERCENT DISCREPANCY =                 .00                              PERCENT DISCREPANCY =                -.00



0


          TIME SUMMARY AT END OF TIME STEP  3 IN STRESS PERIOD  1
                               SECONDS        MINUTES         HOURS          DAYS           YEARS
                           ---------------------------------------------------------------------------
      TIME STEP LENGTH         19.9941        .333234        .555391E-02    .231413E-03    .633574E-06
    STRESS PERIOD TIME         44.1342        .735570        .122595E-01    .510812E-03    .139853E-05
 TOTAL SIMULATION TIME         44.1342        .735570        .122595E-01    .510812E-03    .139853E-05
1
    14 ITERATIONS FOR TIME STEP   4 IN STRESS PERIOD  1
0MAXIMUM HEAD CHANGE FOR EACH ITERATION:
0 HEAD CHANGE LAYER,ROW,COL HEAD CHANGE LAYER,ROW,COL HEAD CHANGE LAYER,ROW,COL HEAD CHANGE LAYER,ROW,COL HEAD CHANGE LAYER,ROW,COL
 ------------------------------------------------------------------------------------------------------------------------------------
   -1.419     (  3,  6,  6)  -1.433     (  3,  4,  5)  -3.595     (  3,  1,  1)  -.3918     (  3,  1,  1)  -.1805     (  3,  5,  1)
   -.4179E-01 (  3,  1,  5)  -.9308E-01 (  3,  1,  1)  -.7723E-01 (  3,  1,  2)  -.7638E-01 (  3,  3,  1)   .1118E-01 (  3,  6,  1)
   -.1851E-02 (  3,  4,  1)  -.2342E-02 (  3,  2,  2)  -.5764E-02 (  3,  1,  1)   .3424E-03 (  3,  6,  5)
0
0HEAD/DRAWDOWN PRINTOUT FLAG = 1     TOTAL BUDGET PRINTOUT FLAG = 1     CELL-BY-CELL FLOW TERM FLAG = 0
 REUSING PREVIOUS VALUES OF IOFLG
1                      HEAD IN LAYER  3 AT END OF TIME STEP  4 IN STRESS PERIOD  1
           -----------------------------------------------------------------------

           1       2       3       4       5       6       7       8       9      10      11      12      13      14      15
 ................................................................................................................................
0  1   -81.98  -62.36  -48.74  -37.85  -27.61  -18.06  -10.10   -4.38   -1.34    -.37    -.07    -.01     .00     .00     .00
0  2   -62.36  -55.79  -46.62  -37.13  -27.36  -17.97  -10.08   -4.38   -1.34    -.37    -.07    -.01     .00     .00     .00
0  3   -48.74  -46.62  -41.81  -34.98  -26.53  -17.68   -9.98   -4.35   -1.34    -.37    -.07    -.01     .00     .00     .00
0  4   -37.85  -37.13  -34.98  -30.98  -24.68  -16.98   -9.74   -4.28   -1.32    -.36    -.07    -.01     .00     .00     .00
0  5   -27.61  -27.36  -26.53  -24.68  -21.02  -15.34   -9.15   -4.11   -1.28    -.36    -.07    -.01     .00     .00     .00
0  6   -18.06  -17.97  -17.68  -16.98  -15.34  -12.15   -7.80   -3.69   -1.19    -.34    -.07    -.01     .00     .00     .00
0  7   -10.10  -10.08   -9.98   -9.74   -9.15   -7.80   -5.51   -2.86    -.99    -.29    -.06    -.01     .00     .00     .00
0  8    -4.38   -4.38   -4.35   -4.28   -4.11   -3.69   -2.86   -1.67    -.65    -.21    -.05    -.01     .00     .00     .00
0  9    -1.34   -1.34   -1.34   -1.32   -1.28   -1.19    -.99    -.65    -.29    -.10    -.03    -.00     .00     .00     .00
0 10     -.37    -.37    -.37    -.36    -.36    -.34    -.29    -.21    -.10    -.04    -.01    -.00     .00     .00     .00
0 11     -.07    -.07    -.07    -.07    -.07    -.07    -.06    -.05    -.03    -.01    -.00     .00     .00     .00     .00
0 12     -.01    -.01    -.01    -.01    -.01    -.01    -.01    -.01    -.00    -.00     .00     .00     .00     .00     .00
0 13      .00     .00     .00     .00     .00     .00     .00     .00     .00     .00     .00     .00     .00     .00     .00
0 14      .00     .00     .00     .00     .00     .00     .00     .00     .00     .00     .00     .00     .00     .00     .00
0 15      .00     .00     .00     .00     .00     .00     .00     .00     .00     .00     .00     .00     .00     .00     .00
0 16      .00     .00     .00     .00     .00     .00     .00     .00     .00     .00     .00     .00     .00     .00     .00
0 17      .00     .00     .00     .00     .00     .00     .00     .00     .00     .00     .00     .00     .00     .00     .00
0 18      .00     .00     .00     .00     .00     .00     .00     .00     .00     .00     .00     .00     .00     .00     .00
0 19      .00     .00     .00     .00     .00     .00     .00     .00     .00     .00     .00     .00     .00     .00     .00
0 20      .00     .00     .00     .00     .00     .00     .00     .00     .00     .00     .00     .00     .00     .00     .00
0 21      .00     .00     .00     .00     .00     .00     .00     .00     .00     .00     .00     .00     .00     .00     .00
0 22      .00     .00     .00     .00     .00     .00     .00     .00     .00     .00     .00     .00     .00     .00     .00
0 23      .00     .00     .00     .00     .00     .00     .00     .00     .00     .00     .00     .00     .00     .00     .00
0 24      .00     .00     .00     .00     .00     .00     .00     .00     .00     .00     .00     .00     .00     .00     .00
0 25      .00     .00     .00     .00     .00     .00     .00     .00     .00     .00     .00     .00     .00     .00     .00
1                      HEAD IN LAYER  3 AT END OF TIME STEP  4 IN STRESS PERIOD  1
           -----------------------------------------------------------------------

          16      17      18      19      20      21      22      23      24      25
 ........................................................................................
0  1      .00     .00     .00     .00     .00     .00     .00     .00     .00     .00
0  2      .00     .00     .00     .00     .00     .00     .00     .00     .00     .00
0  3      .00     .00     .00     .00     .00     .00     .00     .00     .00     .00
0  4      .00     .00     .00     .00     .00     .00     .00     .00     .00     .00
0  5      .00     .00     .00     .00     .00     .00     .00     .00     .00     .00
0  6      .00     .00     .00     .00     .00     .00     .00     .00     .00     .00
0  7      .00     .00     .00     .00     .00     .00     .00     .00     .00     .00
0  8      .00     .00     .00     .00     .00     .00     .00     .00     .00     .00
0  9      .00     .00     .00     .00     .00     .00     .00     .00     .00     .00
0 10      .00     .00     .00     .00     .00     .00     .00     .00     .00     .00
0 11      .00     .00     .00     .00     .00     .00     .00     .00     .00     .00
0 12      .00     .00     .00     .00     .00     .00     .00     .00     .00     .00
0 13      .00     .00     .00     .00     .00     .00     .00     .00     .00     .00
0 14      .00     .00     .00     .00     .00     .00     .00     .00     .00     .00
0 15      .00     .00     .00     .00     .00     .00     .00     .00     .00     .00
0 16      .00     .00     .00     .00     .00     .00     .00     .00     .00     .00
0 17      .00     .00     .00     .00     .00     .00     .00     .00     .00     .00
0 18      .00     .00     .00     .00     .00     .00     .00     .00     .00     .00
0 19      .00     .00     .00     .00     .00     .00     .00     .00     .00     .00
0 20      .00     .00     .00     .00     .00     .00     .00     .00     .00     .00
0 21      .00     .00     .00     .00     .00     .00     .00     .00     .00     .00
0 22      .00     .00     .00     .00     .00     .00     .00     .00     .00     .00
0 23      .00     .00     .00     .00     .00     .00     .00     .00     .00     .00
0 24      .00     .00     .00     .00     .00     .00     .00     .00     .00     .00
0 25      .00     .00     .00     .00     .00     .00     .00     .00     .00     .00
0


                              VOLUMETRIC BUDGET FOR ENTIRE MODEL AT END OF TIME STEP  4 IN STRESS PERIOD  1
                              -----------------------------------------------------------------------------
0                   CUMULATIVE VOLUMES      L**3                                     RATES FOR THIS TIME STEP      L**3/T
                    ------------------                                               ------------------------

                          IN:                                                                    IN:
                          ---                                                                    ---
                            STORAGE =    113.73                                                    STORAGE =    1.5707    
                      CONSTANT HEAD =    .79999E-04                                          CONSTANT HEAD =    .20896E-05
                              WELLS =    .00000                                                      WELLS =    .00000    
0                          TOTAL IN =    113.73                                                   TOTAL IN =    1.5707    
0                        OUT:                                                                   OUT:
                         ----                                                                   ----
                            STORAGE =    .00000                                                    STORAGE =    .00000    
                      CONSTANT HEAD =    .00000                                              CONSTANT HEAD =    .00000    
                              WELLS =    113.73                                                      WELLS =    1.5707    
0                         TOTAL OUT =    113.73                                                  TOTAL OUT =    1.5707    
0                          IN - OUT =   -.13199E-02                                               IN - OUT =   -.32067E-04
0               PERCENT DISCREPANCY =                -.00                              PERCENT DISCREPANCY =                -.00



0


          TIME SUMMARY AT END OF TIME STEP  4 IN STRESS PERIOD  1
                               SECONDS        MINUTES         HOURS          DAYS           YEARS
                           ---------------------------------------------------------------------------
      TIME STEP LENGTH         28.2716        .471193        .785322E-02    .327218E-03    .895873E-06
    STRESS PERIOD TIME         72.4058        1.20676        .201127E-01    .838030E-03    .229440E-05
 TOTAL SIMULATION TIME         72.4058        1.20676        .201127E-01    .838030E-03    .229440E-05
1
    14 ITERATIONS FOR TIME STEP   5 IN STRESS PERIOD  1
0MAXIMUM HEAD CHANGE FOR EACH ITERATION:
0 HEAD CHANGE LAYER,ROW,COL HEAD CHANGE LAYER,ROW,COL HEAD CHANGE LAYER,ROW,COL HEAD CHANGE LAYER,ROW,COL HEAD CHANGE LAYER,ROW,COL
 ------------------------------------------------------------------------------------------------------------------------------------
   -1.290     (  3,  7,  7)  -1.222     (  3,  6,  4)  -3.008     (  3,  1,  1)  -.4924     (  3,  1,  1)  -.2705     (  3,  5,  1)
   -.3946E-01 (  3,  1,  5)  -.8827E-01 (  3,  1,  1)  -.7588E-01 (  3,  1,  2)  -.9236E-01 (  3,  3,  1)   .1483E-01 (  3,  6,  2)
   -.1956E-02 (  3,  4,  1)  -.2520E-02 (  3,  2,  2)  -.6802E-02 (  3,  1,  1)   .4178E-03 (  3,  6,  5)
0
0HEAD/DRAWDOWN PRINTOUT FLAG = 1     TOTAL BUDGET PRINTOUT FLAG = 1     CELL-BY-CELL FLOW TERM FLAG = 0
 REUSING PREVIOUS VALUES OF IOFLG
1                      HEAD IN LAYER  3 AT END OF TIME STEP  5 IN STRESS PERIOD  1
           -----------------------------------------------------------------------

           1       2       3       4       5       6       7       8       9      10      11      12      13      14      15
 ................................................................................................................................
0  1   -86.64  -67.02  -53.38  -42.45  -32.10  -22.27  -13.70   -6.92   -2.63    -.90    -.23    -.04    -.00     .00     .00
0  2   -67.02  -60.44  -51.25  -41.72  -31.84  -22.18  -13.67   -6.91   -2.63    -.90    -.23    -.04    -.00     .00     .00
0  3   -53.38  -51.25  -46.43  -39.56  -31.00  -21.87  -13.56   -6.87   -2.62    -.90    -.23    -.04    -.00     .00     .00
0  4   -42.45  -41.72  -39.56  -35.51  -29.12  -21.13  -13.29   -6.79   -2.60    -.89    -.23    -.04    -.00     .00     .00
0  5   -32.10  -31.84  -31.00  -29.12  -25.35  -19.40  -12.62   -6.57   -2.54    -.88    -.23    -.04    -.00     .00     .00
0  6   -22.27  -22.18  -21.87  -21.13  -19.40  -15.97  -11.08   -6.02   -2.39    -.84    -.22    -.04    -.00     .00     .00
0  7   -13.70  -13.67  -13.56  -13.29  -12.62  -11.08   -8.35   -4.91   -2.06    -.75    -.20    -.03    -.00     .00     .00
0  8    -6.92   -6.91   -6.87   -6.79   -6.57   -6.02   -4.91   -3.19   -1.48    -.57    -.16    -.03    -.00     .00     .00
0  9    -2.63   -2.63   -2.62   -2.60   -2.54   -2.39   -2.06   -1.48    -.77    -.33    -.10    -.02    -.00     .00     .00
0 10     -.90    -.90    -.90    -.89    -.88    -.84    -.75    -.57    -.33    -.15    -.05    -.01    -.00     .00     .00
0 11     -.23    -.23    -.23    -.23    -.23    -.22    -.20    -.16    -.10    -.05    -.02    -.00     .00     .00     .00
0 12     -.04    -.04    -.04    -.04    -.04    -.04    -.03    -.03    -.02    -.01    -.00    -.00     .00     .00     .00
0 13     -.00    -.00    -.00    -.00    -.00    -.00    -.00    -.00    -.00    -.00     .00     .00     .00     .00     .00
0 14      .00     .00     .00     .00     .00     .00     .00     .00     .00     .00     .00     .00     .00     .00     .00
0 15      .00     .00     .00     .00     .00     .00     .00     .00     .00     .00     .00     .00     .00     .00     .00
0 16      .00     .00     .00     .00     .00     .00     .00     .00     .00     .00     .00     .00     .00     .00     .00
0 17      .00     .00     .00     .00     .00     .00     .00     .00     .00     .00     .00     .00     .00     .00     .00
0 18      .00     .00     .00     .00     .00     .00     .00     .00     .00     .00     .00     .00     .00     .00     .00
0 19      .00     .00     .00     .00     .00     .00     .00     .00     .00     .00     .00     .00     .00     .00     .00
0 20      .00     .00     .00     .00     .00     .00     .00     .00     .00     .00     .00     .00     .00     .00     .00
0 21      .00     .00     .00     .00     .00     .00     .00     .00     .00     .00     .00     .00     .00     .00     .00
0 22      .00     .00     .00     .00     .00     .00     .00     .00     .00     .00     .00     .00     .00     .00     .00
0 23      .00     .00     .00     .00     .00     .00     .00     .00     .00     .00     .00     .00     .00     .00     .00
0 24      .00     .00     .00     .00     .00     .00     .00     .00     .00     .00     .00     .00     .00     .00     .00
0 25      .00     .00     .00     .00     .00     .00     .00     .00     .00     .00     .00     .00     .00     .00     .00
1                      HEAD IN LAYER  3 AT END OF TIME STEP  5 IN STRESS PERIOD  1
           -----------------------------------------------------------------------

          16      17      18      19      20      21      22      23      24      25
 ........................................................................................
0  1      .00     .00     .00     .00     .00     .00     .00     .00     .00     .00
0  2      .00     .00     .00     .00     .00     .00     .00     .00     .00     .00
0  3      .00     .00     .00     .00     .00     .00     .00     .00     .00     .00
0  4      .00     .00     .00     .00     .00     .00     .00     .00     .00     .00
0  5      .00     .00     .00     .00     .00     .00     .00     .00     .00     .00
0  6      .00     .00     .00     .00     .00     .00     .00     .00     .00     .00
0  7      .00     .00     .00     .00     .00     .00     .00     .00     .00     .00
0  8      .00     .00     .00     .00     .00     .00     .00     .00     .00     .00
0  9      .00     .00     .00     .00     .00     .00     .00     .00     .00     .00
0 10      .00     .00     .00     .00     .00     .00     .00     .00     .00     .00
0 11      .00     .00     .00     .00     .00     .00     .00     .00     .00     .00
0 12      .00     .00     .00     .00     .00     .00     .00     .00     .00     .00
0 13      .00     .00     .00     .00     .00     .00     .00     .00     .00     .00
0 14      .00     .00     .00     .00     .00     .00     .00     .00     .00     .00
0 15      .00     .00     .00     .00     .00     .00     .00     .00     .00     .00
0 16      .00     .00     .00     .00     .00     .00     .00     .00     .00     .00
0 17      .00     .00     .00     .00     .00     .00     .00     .00     .00     .00
0 18      .00     .00     .00     .00     .00     .00     .00     .00     .00     .00
0 19      .00     .00     .00     .00     .00     .00     .00     .00     .00     .00
0 20      .00     .00     .00     .00     .00     .00     .00     .00     .00     .00
0 21      .00     .00     .00     .00     .00     .00     .00     .00     .00     .00
0 22      .00     .00     .00     .00     .00     .00     .00     .00     .00     .00
0 23      .00     .00     .00     .00     .00     .00     .00     .00     .00     .00
0 24      .00     .00     .00     .00     .00     .00     .00     .00     .00     .00
0 25      .00     .00     .00     .00     .00     .00     .00     .00     .00     .00
0


                              VOLUMETRIC BUDGET FOR ENTIRE MODEL AT END OF TIME STEP  5 IN STRESS PERIOD  1
                              -----------------------------------------------------------------------------
0                   CUMULATIVE VOLUMES      L**3                                     RATES FOR THIS TIME STEP      L**3/T
                    ------------------                                               ------------------------

                          IN:                                                                    IN:
                          ---                                                                    ---
                            STORAGE =    176.52                                                    STORAGE =    1.5707    
                      CONSTANT HEAD =    .27455E-03                                          CONSTANT HEAD =    .48666E-05
                              WELLS =    .00000                                                      WELLS =    .00000    
0                          TOTAL IN =    176.52                                                   TOTAL IN =    1.5707    
0                        OUT:                                                                   OUT:
                         ----                                                                   ----
                            STORAGE =    .00000                                                    STORAGE =    .00000    
                      CONSTANT HEAD =    .00000                                              CONSTANT HEAD =    .00000    
                              WELLS =    176.52                                                      WELLS =    1.5707    
0                         TOTAL OUT =    176.52                                                  TOTAL OUT =    1.5707    
0                          IN - OUT =   -.33112E-02                                               IN - OUT =   -.49949E-04
0               PERCENT DISCREPANCY =                -.00                              PERCENT DISCREPANCY =                -.00



0


          TIME SUMMARY AT END OF TIME STEP  5 IN STRESS PERIOD  1
                               SECONDS        MINUTES         HOURS          DAYS           YEARS
                           ---------------------------------------------------------------------------
      TIME STEP LENGTH         39.9761        .666268        .111045E-01    .462686E-03    .126676E-05
    STRESS PERIOD TIME         112.382        1.87303        .312172E-01    .130072E-02    .356117E-05
 TOTAL SIMULATION TIME         112.382        1.87303        .312172E-01    .130072E-02    .356117E-05
1
    14 ITERATIONS FOR TIME STEP   6 IN STRESS PERIOD  1
0MAXIMUM HEAD CHANGE FOR EACH ITERATION:
0 HEAD CHANGE LAYER,ROW,COL HEAD CHANGE LAYER,ROW,COL HEAD CHANGE LAYER,ROW,COL HEAD CHANGE LAYER,ROW,COL HEAD CHANGE LAYER,ROW,COL
 ------------------------------------------------------------------------------------------------------------------------------------
   -1.202     (  3,  7,  7)  -1.102     (  3,  6,  5)  -2.587     (  3,  1,  1)  -.5840     (  3,  1,  1)  -.3750     (  3,  5,  1)
    .4736E-01 (  3,  8,  1)  -.8215E-01 (  3,  1,  1)  -.7076E-01 (  3,  1,  2)  -.1043     (  3,  3,  1)   .1807E-01 (  3,  6,  3)
   -.2001E-02 (  3,  4,  1)  -.2601E-02 (  3,  2,  2)  -.7638E-02 (  3,  1,  1)   .4925E-03 (  3,  6,  6)
0
0HEAD/DRAWDOWN PRINTOUT FLAG = 1     TOTAL BUDGET PRINTOUT FLAG = 1     CELL-BY-CELL FLOW TERM FLAG = 0
 REUSING PREVIOUS VALUES OF IOFLG
1                      HEAD IN LAYER  3 AT END OF TIME STEP  6 IN STRESS PERIOD  1
           -----------------------------------------------------------------------

           1       2       3       4       5       6       7       8       9      10      11      12      13      14      15
 ................................................................................................................................
0  1   -90.86  -71.23  -57.58  -46.63  -36.21  -26.22  -17.28   -9.76   -4.41   -1.83    -.59    -.13    -.02    -.00     .00
0  2   -71.23  -64.65  -55.45  -45.90  -35.96  -26.13  -17.25   -9.75   -4.40   -1.83    -.59    -.13    -.02    -.00     .00
0  3   -57.58  -55.45  -50.62  -43.73  -35.10  -25.82  -17.13   -9.71   -4.39   -1.82    -.59    -.13    -.02    -.00     .00
0  4   -46.63  -45.90  -43.73  -39.66  -33.20  -25.05  -16.85   -9.61   -4.36   -1.81    -.59    -.13    -.02    -.00     .00
0  5   -36.21  -35.96  -35.10  -33.20  -29.37  -23.27  -16.13   -9.36   -4.28   -1.79    -.58    -.13    -.02    -.00     .00
0  6   -26.22  -26.13  -25.82  -25.05  -23.27  -19.69  -14.45   -8.72   -4.08   -1.72    -.57    -.13    -.02     .00     .00
0  7   -17.28  -17.25  -17.13  -16.85  -16.13  -14.45  -11.42   -7.37   -3.62   -1.57    -.53    -.12    -.02     .00     .00
0  8    -9.76   -9.75   -9.71   -9.61   -9.36   -8.72   -7.37   -5.20   -2.78   -1.27    -.45    -.11    -.01     .00     .00
0  9    -4.41   -4.40   -4.39   -4.36   -4.28   -4.08   -3.62   -2.78   -1.65    -.82    -.31    -.08    -.01     .00     .00
0 10    -1.83   -1.83   -1.82   -1.81   -1.79   -1.72   -1.57   -1.27    -.82    -.44    -.18    -.05    -.01     .00     .00
0 11     -.59    -.59    -.59    -.59    -.58    -.57    -.53    -.45    -.31    -.18    -.08    -.02    -.00     .00     .00
0 12     -.13    -.13    -.13    -.13    -.13    -.13    -.12    -.11    -.08    -.05    -.02    -.01    -.00     .00     .00
0 13     -.02    -.02    -.02    -.02    -.02    -.02    -.02    -.01    -.01    -.01    -.00    -.00     .00     .00     .00
0 14     -.00    -.00    -.00    -.00    -.00     .00     .00     .00     .00     .00     .00     .00     .00     .00     .00
0 15      .00     .00     .00     .00     .00     .00     .00     .00     .00     .00     .00     .00     .00     .00     .00
0 16      .00     .00     .00     .00     .00     .00     .00     .00     .00     .00     .00     .00     .00     .00     .00
0 17      .00     .00     .00     .00     .00     .00     .00     .00     .00     .00     .00     .00     .00     .00     .00
0 18      .00     .00     .00     .00     .00     .00     .00     .00     .00     .00     .00     .00     .00     .00     .00
0 19      .00     .00     .00     .00     .00     .00     .00     .00     .00     .00     .00     .00     .00     .00     .00
0 20      .00     .00     .00     .00     .00     .00     .00     .00     .00     .00     .00     .00     .00     .00     .00
0 21      .00     .00     .00     .00     .00     .00     .00     .00     .00     .00     .00     .00     .00     .00     .00
0 22      .00     .00     .00     .00     .00     .00     .00     .00     .00     .00     .00     .00     .00     .00     .00
0 23      .00     .00     .00     .00     .00     .00     .00     .00     .00     .00     .00     .00     .00     .00     .00
0 24      .00     .00     .00     .00     .00     .00     .00     .00     .00     .00     .00     .00     .00     .00     .00
0 25      .00     .00     .00     .00     .00     .00     .00     .00     .00     .00     .00     .00     .00     .00     .00
1                      HEAD IN LAYER  3 AT END OF TIME STEP  6 IN STRESS PERIOD  1
           -----------------------------------------------------------------------

          16      17      18      19      20      21      22      23      24      25
 ........................................................................................
0  1      .00     .00     .00     .00     .00     .00     .00     .00     .00     .00
0  2      .00     .00     .00     .00     .00     .00     .00     .00     .00     .00
0  3      .00     .00     .00     .00     .00     .00     .00     .00     .00     .00
0  4      .00     .00     .00     .00     .00     .00     .00     .00     .00     .00
0  5      .00     .00     .00     .00     .00     .00     .00     .00     .00     .00
0  6      .00     .00     .00     .00     .00     .00     .00     .00     .00     .00
0  7      .00     .00     .00     .00     .00     .00     .00     .00     .00     .00
0  8      .00     .00     .00     .00     .00     .00     .00     .00     .00     .00
0  9      .00     .00     .00     .00     .00     .00     .00     .00     .00     .00
0 10      .00     .00     .00     .00     .00     .00     .00     .00     .00     .00
0 11      .00     .00     .00     .00     .00     .00     .00     .00     .00     .00
0 12      .00     .00     .00     .00     .00     .00     .00     .00     .00     .00
0 13      .00     .00     .00     .00     .00     .00     .00     .00     .00     .00
0 14      .00     .00     .00     .00     .00     .00     .00     .00     .00     .00
0 15      .00     .00     .00     .00     .00     .00     .00     .00     .00     .00
0 16      .00     .00     .00     .00     .00     .00     .00     .00     .00     .00
0 17      .00     .00     .00     .00     .00     .00     .00     .00     .00     .00
0 18      .00     .00     .00     .00     .00     .00     .00     .00     .00     .00
0 19      .00     .00     .00     .00     .00     .00     .00     .00     .00     .00
0 20      .00     .00     .00     .00     .00     .00     .00     .00     .00     .00
0 21      .00     .00     .00     .00     .00     .00     .00     .00     .00     .00
0 22      .00     .00     .00     .00     .00     .00     .00     .00     .00     .00
0 23      .00     .00     .00     .00     .00     .00     .00     .00     .00     .00
0 24      .00     .00     .00     .00     .00     .00     .00     .00     .00     .00
0 25      .00     .00     .00     .00     .00     .00     .00     .00     .00     .00
0


                              VOLUMETRIC BUDGET FOR ENTIRE MODEL AT END OF TIME STEP  6 IN STRESS PERIOD  1
                              -----------------------------------------------------------------------------
0                   CUMULATIVE VOLUMES      L**3                                     RATES FOR THIS TIME STEP      L**3/T
                    ------------------                                               ------------------------

                          IN:                                                                    IN:
                          ---                                                                    ---
                            STORAGE =    265.30                                                    STORAGE =    1.5707    
                      CONSTANT HEAD =    .88227E-03                                          CONSTANT HEAD =    .10751E-04
                              WELLS =    .00000                                                      WELLS =    .00000    
0                          TOTAL IN =    265.30                                                   TOTAL IN =    1.5707    
0                        OUT:                                                                   OUT:
                         ----                                                                   ----
                            STORAGE =    .00000                                                    STORAGE =    .00000    
                      CONSTANT HEAD =    .00000                                              CONSTANT HEAD =    .00000    
                              WELLS =    265.31                                                      WELLS =    1.5707    
0                         TOTAL OUT =    265.31                                                  TOTAL OUT =    1.5707    
0                          IN - OUT =   -.73242E-02                                               IN - OUT =   -.71287E-04
0               PERCENT DISCREPANCY =                -.00                              PERCENT DISCREPANCY =                -.00



0


          TIME SUMMARY AT END OF TIME STEP  6 IN STRESS PERIOD  1
                               SECONDS        MINUTES         HOURS          DAYS           YEARS
                           ---------------------------------------------------------------------------
      TIME STEP LENGTH         56.5261        .942102        .157017E-01    .654238E-03    .179121E-05
    STRESS PERIOD TIME         168.908        2.81513        .469189E-01    .195495E-02    .535237E-05
 TOTAL SIMULATION TIME         168.908        2.81513        .469189E-01    .195495E-02    .535237E-05
1
    14 ITERATIONS FOR TIME STEP   7 IN STRESS PERIOD  1
0MAXIMUM HEAD CHANGE FOR EACH ITERATION:
0 HEAD CHANGE LAYER,ROW,COL HEAD CHANGE LAYER,ROW,COL HEAD CHANGE LAYER,ROW,COL HEAD CHANGE LAYER,ROW,COL HEAD CHANGE LAYER,ROW,COL
 ------------------------------------------------------------------------------------------------------------------------------------
   -1.115     (  3,  8,  8)  -1.024     (  3,  7,  5)  -2.248     (  3,  1,  1)  -.6699     (  3,  1,  1)  -.4964     (  3,  5,  1)
    .5648E-01 (  3,  8,  1)  -.7433E-01 (  3,  1,  1)  -.6076E-01 (  3,  1,  1)  -.1072     (  3,  3,  1)   .1984E-01 (  3,  6,  4)
   -.1971E-02 (  3,  4,  1)  -.2607E-02 (  3,  3,  2)  -.8233E-02 (  3,  1,  1)  -.5656E-03 (  3,  1,  1)
0
0HEAD/DRAWDOWN PRINTOUT FLAG = 1     TOTAL BUDGET PRINTOUT FLAG = 1     CELL-BY-CELL FLOW TERM FLAG = 0
 REUSING PREVIOUS VALUES OF IOFLG
1                      HEAD IN LAYER  3 AT END OF TIME STEP  7 IN STRESS PERIOD  1
           -----------------------------------------------------------------------

           1       2       3       4       5       6       7       8       9      10      11      12      13      14      15
 ................................................................................................................................
0  1   -94.79  -75.16  -61.50  -50.54  -40.08  -29.99  -20.81  -12.80   -6.60   -3.19   -1.27    -.36    -.06    -.01     .00
0  2   -75.16  -68.58  -59.37  -49.80  -39.82  -29.90  -20.78  -12.78   -6.60   -3.19   -1.27    -.36    -.06    -.01     .00
0  3   -61.50  -59.37  -54.53  -47.63  -38.97  -29.58  -20.66  -12.74   -6.58   -3.18   -1.26    -.36    -.06    -.01     .00
0  4   -50.54  -49.80  -47.63  -43.55  -37.05  -28.81  -20.36  -12.63   -6.55   -3.17   -1.26    -.36    -.06    -.01     .00
0  5   -40.08  -39.82  -38.97  -37.05  -33.18  -26.99  -19.61  -12.35   -6.45   -3.13   -1.25    -.36    -.06    -.01     .00
0  6   -29.99  -29.90  -29.58  -28.81  -26.99  -23.31  -17.85  -11.64   -6.20   -3.04   -1.22    -.35    -.06    -.01     .00
0  7   -20.81  -20.78  -20.66  -20.36  -19.61  -17.85  -14.61  -10.12   -5.63   -2.83   -1.15    -.34    -.06    -.01     .00
0  8   -12.80  -12.78  -12.74  -12.63  -12.35  -11.64  -10.12   -7.59   -4.54   -2.38   -1.01    -.30    -.05    -.00     .00
0  9    -6.60   -6.60   -6.58   -6.55   -6.45   -6.20   -5.63   -4.54   -2.97   -1.68    -.76    -.24    -.04    -.00     .00
0 10    -3.19   -3.19   -3.18   -3.17   -3.13   -3.04   -2.83   -2.38   -1.68   -1.01    -.49    -.16    -.03    -.00     .00
0 11    -1.27   -1.27   -1.26   -1.26   -1.25   -1.22   -1.15   -1.01    -.76    -.49    -.26    -.09    -.02    -.00     .00
0 12     -.36    -.36    -.36    -.36    -.36    -.35    -.34    -.30    -.24    -.16    -.09    -.04    -.01    -.00     .00
0 13     -.06    -.06    -.06    -.06    -.06    -.06    -.06    -.05    -.04    -.03    -.02    -.01    -.00     .00     .00
0 14     -.01    -.01    -.01    -.01    -.01    -.01    -.01    -.00    -.00    -.00    -.00    -.00     .00     .00     .00
0 15      .00     .00     .00     .00     .00     .00     .00     .00     .00     .00     .00     .00     .00     .00     .00
0 16      .00     .00     .00     .00     .00     .00     .00     .00     .00     .00     .00     .00     .00     .00     .00
0 17      .00     .00     .00     .00     .00     .00     .00     .00     .00     .00     .00     .00     .00     .00     .00
0 18      .00     .00     .00     .00     .00     .00     .00     .00     .00     .00     .00     .00     .00     .00     .00
0 19      .00     .00     .00     .00     .00     .00     .00     .00     .00     .00     .00     .00     .00     .00     .00
0 20      .00     .00     .00     .00     .00     .00     .00     .00     .00     .00     .00     .00     .00     .00     .00
0 21      .00     .00     .00     .00     .00     .00     .00     .00     .00     .00     .00     .00     .00     .00     .00
0 22      .00     .00     .00     .00     .00     .00     .00     .00     .00     .00     .00     .00     .00     .00     .00
0 23      .00     .00     .00     .00     .00     .00     .00     .00     .00     .00     .00     .00     .00     .00     .00
0 24      .00     .00     .00     .00     .00     .00     .00     .00     .00     .00     .00     .00     .00     .00     .00
0 25      .00     .00     .00     .00     .00     .00     .00     .00     .00     .00     .00     .00     .00     .00     .00
1                      HEAD IN LAYER  3 AT END OF TIME STEP  7 IN STRESS PERIOD  1
           -----------------------------------------------------------------------

          16      17      18      19      20      21      22      23      24      25
 ........................................................................................
0  1      .00     .00     .00     .00     .00     .00     .00     .00     .00     .00
0  2      .00     .00     .00     .00     .00     .00     .00     .00     .00     .00
0  3      .00     .00     .00     .00     .00     .00     .00     .00     .00     .00
0  4      .00     .00     .00     .00     .00     .00     .00     .00     .00     .00
0  5      .00     .00     .00     .00     .00     .00     .00     .00     .00     .00
0  6      .00     .00     .00     .00     .00     .00     .00     .00     .00     .00
0  7      .00     .00     .00     .00     .00     .00     .00     .00     .00     .00
0  8      .00     .00     .00     .00     .00     .00     .00     .00     .00     .00
0  9      .00     .00     .00     .00     .00     .00     .00     .00     .00     .00
0 10      .00     .00     .00     .00     .00     .00     .00     .00     .00     .00
0 11      .00     .00     .00     .00     .00     .00     .00     .00     .00     .00
0 12      .00     .00     .00     .00     .00     .00     .00     .00     .00     .00
0 13      .00     .00     .00     .00     .00     .00     .00     .00     .00     .00
0 14      .00     .00     .00     .00     .00     .00     .00     .00     .00     .00
0 15      .00     .00     .00     .00     .00     .00     .00     .00     .00     .00
0 16      .00     .00     .00     .00     .00     .00     .00     .00     .00     .00
0 17      .00     .00     .00     .00     .00     .00     .00     .00     .00     .00
0 18      .00     .00     .00     .00     .00     .00     .00     .00     .00     .00
0 19      .00     .00     .00     .00     .00     .00     .00     .00     .00     .00
0 20      .00     .00     .00     .00     .00     .00     .00     .00     .00     .00
0 21      .00     .00     .00     .00     .00     .00     .00     .00     .00     .00
0 22      .00     .00     .00     .00     .00     .00     .00     .00     .00     .00
0 23      .00     .00     .00     .00     .00     .00     .00     .00     .00     .00
0 24      .00     .00     .00     .00     .00     .00     .00     .00     .00     .00
0 25      .00     .00     .00     .00     .00     .00     .00     .00     .00     .00
0


                              VOLUMETRIC BUDGET FOR ENTIRE MODEL AT END OF TIME STEP  7 IN STRESS PERIOD  1
                              -----------------------------------------------------------------------------
0                   CUMULATIVE VOLUMES      L**3                                     RATES FOR THIS TIME STEP      L**3/T
                    ------------------                                               ------------------------

                          IN:                                                                    IN:
                          ---                                                                    ---
                            STORAGE =    390.84                                                    STORAGE =    1.5706    
                      CONSTANT HEAD =    .27173E-02                                          CONSTANT HEAD =    .22958E-04
                              WELLS =    .00000                                                      WELLS =    .00000    
0                          TOTAL IN =    390.84                                                   TOTAL IN =    1.5707    
0                        OUT:                                                                   OUT:
                         ----                                                                   ----
                            STORAGE =    .00000                                                    STORAGE =    .00000    
                      CONSTANT HEAD =    .00000                                              CONSTANT HEAD =    .00000    
                              WELLS =    390.86                                                      WELLS =    1.5707    
0                         TOTAL OUT =    390.86                                                  TOTAL OUT =    1.5707    
0                          IN - OUT =   -.14893E-01                                               IN - OUT =   -.94771E-04
0               PERCENT DISCREPANCY =                -.00                              PERCENT DISCREPANCY =                -.01



0


          TIME SUMMARY AT END OF TIME STEP  7 IN STRESS PERIOD  1
                               SECONDS        MINUTES         HOURS          DAYS           YEARS
                           ---------------------------------------------------------------------------
      TIME STEP LENGTH         79.9280        1.33213        .222022E-01    .925092E-03    .253276E-05
    STRESS PERIOD TIME         248.836        4.14727        .691211E-01    .288005E-02    .788514E-05
 TOTAL SIMULATION TIME         248.836        4.14727        .691211E-01    .288005E-02    .788514E-05
1
    14 ITERATIONS FOR TIME STEP   8 IN STRESS PERIOD  1
0MAXIMUM HEAD CHANGE FOR EACH ITERATION:
0 HEAD CHANGE LAYER,ROW,COL HEAD CHANGE LAYER,ROW,COL HEAD CHANGE LAYER,ROW,COL HEAD CHANGE LAYER,ROW,COL HEAD CHANGE LAYER,ROW,COL
 ------------------------------------------------------------------------------------------------------------------------------------
   -1.058     (  3,  8,  8)  -.9627     (  3,  7,  6)  -1.957     (  3,  1,  1)  -.7510     (  3,  1,  1)  -.6350     (  3,  5,  1)
    .6397E-01 (  3,  8,  1)  -.6506E-01 (  3,  1,  1)  -.4604E-01 (  3,  1,  1)  -.9597E-01 (  3,  3,  1)   .1914E-01 (  3,  6,  4)
   -.1863E-02 (  3,  4,  1)  -.2527E-02 (  3,  3,  2)  -.8626E-02 (  3,  1,  1)  -.7781E-03 (  3,  1,  1)
0
0HEAD/DRAWDOWN PRINTOUT FLAG = 1     TOTAL BUDGET PRINTOUT FLAG = 1     CELL-BY-CELL FLOW TERM FLAG = 0
 REUSING PREVIOUS VALUES OF IOFLG
1                      HEAD IN LAYER  3 AT END OF TIME STEP  8 IN STRESS PERIOD  1
           -----------------------------------------------------------------------

           1       2       3       4       5       6       7       8       9      10      11      12      13      14      15
 ................................................................................................................................
0  1   -98.52  -78.89  -65.23  -54.26  -43.78  -33.63  -24.29  -15.94   -9.12   -4.97   -2.32    -.82    -.18    -.02    -.00
0  2   -78.89  -72.31  -63.10  -53.52  -43.52  -33.53  -24.26  -15.93   -9.12   -4.97   -2.32    -.82    -.18    -.02    -.00
0  3   -65.23  -63.10  -58.26  -51.34  -42.66  -33.21  -24.14  -15.88   -9.10   -4.96   -2.32    -.82    -.18    -.02    -.00
0  4   -54.26  -53.52  -51.34  -47.25  -40.73  -32.43  -23.83  -15.76   -9.06   -4.95   -2.31    -.82    -.18    -.02    -.00
0  5   -43.78  -43.52  -42.66  -40.73  -36.84  -30.58  -23.06  -15.46   -8.95   -4.90   -2.30    -.82    -.18    -.02    -.00
0  6   -33.63  -33.53  -33.21  -32.43  -30.58  -26.85  -21.24  -14.70   -8.66   -4.79   -2.26    -.80    -.18    -.02    -.00
0  7   -24.29  -24.26  -24.14  -23.83  -23.06  -21.24  -17.86  -13.06   -8.00   -4.51   -2.16    -.78    -.17    -.02    -.00
0  8   -15.94  -15.93  -15.88  -15.76  -15.46  -14.70  -13.06  -10.25   -6.69   -3.93   -1.93    -.71    -.16    -.02    -.00
0  9    -9.12   -9.12   -9.10   -9.06   -8.95   -8.66   -8.00   -6.69   -4.73   -2.96   -1.54    -.59    -.14    -.02    -.00
0 10    -4.97   -4.97   -4.96   -4.95   -4.90   -4.79   -4.51   -3.93   -2.96   -1.96   -1.08    -.44    -.11    -.01     .00
0 11    -2.32   -2.32   -2.32   -2.31   -2.30   -2.26   -2.16   -1.93   -1.54   -1.08    -.64    -.28    -.07    -.01     .00
0 12     -.82    -.82    -.82    -.82    -.82    -.80    -.78    -.71    -.59    -.44    -.28    -.13    -.04    -.01     .00
0 13     -.18    -.18    -.18    -.18    -.18    -.18    -.17    -.16    -.14    -.11    -.07    -.04    -.01    -.00     .00
0 14     -.02    -.02    -.02    -.02    -.02    -.02    -.02    -.02    -.02    -.01    -.01    -.01    -.00     .00     .00
0 15     -.00    -.00    -.00    -.00    -.00    -.00    -.00    -.00    -.00     .00     .00     .00     .00     .00     .00
0 16      .00     .00     .00     .00     .00     .00     .00     .00     .00     .00     .00     .00     .00     .00     .00
0 17      .00     .00     .00     .00     .00     .00     .00     .00     .00     .00     .00     .00     .00     .00     .00
0 18      .00     .00     .00     .00     .00     .00     .00     .00     .00     .00     .00     .00     .00     .00     .00
0 19      .00     .00     .00     .00     .00     .00     .00     .00     .00     .00     .00     .00     .00     .00     .00
0 20      .00     .00     .00     .00     .00     .00     .00     .00     .00     .00     .00     .00     .00     .00     .00
0 21      .00     .00     .00     .00     .00     .00     .00     .00     .00     .00     .00     .00     .00     .00     .00
0 22      .00     .00     .00     .00     .00     .00     .00     .00     .00     .00     .00     .00     .00     .00     .00
0 23      .00     .00     .00     .00     .00     .00     .00     .00     .00     .00     .00     .00     .00     .00     .00
0 24      .00     .00     .00     .00     .00     .00     .00     .00     .00     .00     .00     .00     .00     .00     .00
0 25      .00     .00     .00     .00     .00     .00     .00     .00     .00     .00     .00     .00     .00     .00     .00
1                      HEAD IN LAYER  3 AT END OF TIME STEP  8 IN STRESS PERIOD  1
           -----------------------------------------------------------------------

          16      17      18      19      20      21      22      23      24      25
 ........................................................................................
0  1      .00     .00     .00     .00     .00     .00     .00     .00     .00     .00
0  2      .00     .00     .00     .00     .00     .00     .00     .00     .00     .00
0  3      .00     .00     .00     .00     .00     .00     .00     .00     .00     .00
0  4      .00     .00     .00     .00     .00     .00     .00     .00     .00     .00
0  5      .00     .00     .00     .00     .00     .00     .00     .00     .00     .00
0  6      .00     .00     .00     .00     .00     .00     .00     .00     .00     .00
0  7      .00     .00     .00     .00     .00     .00     .00     .00     .00     .00
0  8      .00     .00     .00     .00     .00     .00     .00     .00     .00     .00
0  9      .00     .00     .00     .00     .00     .00     .00     .00     .00     .00
0 10      .00     .00     .00     .00     .00     .00     .00     .00     .00     .00
0 11      .00     .00     .00     .00     .00     .00     .00     .00     .00     .00
0 12      .00     .00     .00     .00     .00     .00     .00     .00     .00     .00
0 13      .00     .00     .00     .00     .00     .00     .00     .00     .00     .00
0 14      .00     .00     .00     .00     .00     .00     .00     .00     .00     .00
0 15      .00     .00     .00     .00     .00     .00     .00     .00     .00     .00
0 16      .00     .00     .00     .00     .00     .00     .00     .00     .00     .00
0 17      .00     .00     .00     .00     .00     .00     .00     .00     .00     .00
0 18      .00     .00     .00     .00     .00     .00     .00     .00     .00     .00
0 19      .00     .00     .00     .00     .00     .00     .00     .00     .00     .00
0 20      .00     .00     .00     .00     .00     .00     .00     .00     .00     .00
0 21      .00     .00     .00     .00     .00     .00     .00     .00     .00     .00
0 22      .00     .00     .00     .00     .00     .00     .00     .00     .00     .00
0 23      .00     .00     .00     .00     .00     .00     .00     .00     .00     .00
0 24      .00     .00     .00     .00     .00     .00     .00     .00     .00     .00
0 25      .00     .00     .00     .00     .00     .00     .00     .00     .00     .00
0


                              VOLUMETRIC BUDGET FOR ENTIRE MODEL AT END OF TIME STEP  8 IN STRESS PERIOD  1
                              -----------------------------------------------------------------------------
0                   CUMULATIVE VOLUMES      L**3                                     RATES FOR THIS TIME STEP      L**3/T
                    ------------------                                               ------------------------

                          IN:                                                                    IN:
                          ---                                                                    ---
                            STORAGE =    568.34                                                    STORAGE =    1.5706    
                      CONSTANT HEAD =    .81322E-02                                          CONSTANT HEAD =    .47912E-04
                              WELLS =    .00000                                                      WELLS =    .00000    
0                          TOTAL IN =    568.35                                                   TOTAL IN =    1.5706    
0                        OUT:                                                                   OUT:
                         ----                                                                   ----
                            STORAGE =    .00000                                                    STORAGE =    .00000    
                      CONSTANT HEAD =    .00000                                              CONSTANT HEAD =    .00000    
                              WELLS =    568.38                                                      WELLS =    1.5707    
0                         TOTAL OUT =    568.38                                                  TOTAL OUT =    1.5707    
0                          IN - OUT =   -.29236E-01                                               IN - OUT =   -.12684E-03
0               PERCENT DISCREPANCY =                -.01                              PERCENT DISCREPANCY =                -.01



0


          TIME SUMMARY AT END OF TIME STEP  8 IN STRESS PERIOD  1
                               SECONDS        MINUTES         HOURS          DAYS           YEARS
                           ---------------------------------------------------------------------------
      TIME STEP LENGTH         113.018        1.88364        .313939E-01    .130808E-02    .358133E-05
    STRESS PERIOD TIME         361.854        6.03090        .100515        .418813E-02    .114665E-04
 TOTAL SIMULATION TIME         361.854        6.03090        .100515        .418813E-02    .114665E-04
1
    16 ITERATIONS FOR TIME STEP   9 IN STRESS PERIOD  1
0MAXIMUM HEAD CHANGE FOR EACH ITERATION:
0 HEAD CHANGE LAYER,ROW,COL HEAD CHANGE LAYER,ROW,COL HEAD CHANGE LAYER,ROW,COL HEAD CHANGE LAYER,ROW,COL HEAD CHANGE LAYER,ROW,COL
 ------------------------------------------------------------------------------------------------------------------------------------
   -.9428     (  3,  8,  9)  -.9117     (  3,  8,  6)  -1.697     (  3,  1,  1)  -.8267     (  3,  1,  1)  -.7888     (  3,  5,  1)
    .7475E-01 (  3,  9,  1)  -.5481E-01 (  3,  1,  1)   .3378E-01 (  3,  7,  6)  -.6717E-01 (  3,  4,  3)   .1518E-01 (  3,  6,  5)
   -.1675E-02 (  3,  4,  1)  -.2397E-02 (  3,  3,  3)  -.8854E-02 (  3,  1,  1)  -.1116E-02 (  3,  1,  1)  -.1197E-02 (  3,  6,  1)
    .2241E-03 (  3,  9,  1)
0
0HEAD/DRAWDOWN PRINTOUT FLAG = 1     TOTAL BUDGET PRINTOUT FLAG = 1     CELL-BY-CELL FLOW TERM FLAG = 0
 REUSING PREVIOUS VALUES OF IOFLG
1                      HEAD IN LAYER  3 AT END OF TIME STEP  9 IN STRESS PERIOD  1
           -----------------------------------------------------------------------

           1       2       3       4       5       6       7       8       9      10      11      12      13      14      15
 ................................................................................................................................
0  1  -102.11  -82.48  -68.82  -57.84  -47.35  -37.15  -27.72  -19.13  -11.87   -7.12   -3.79   -1.61    -.45    -.07    -.01
0  2   -82.48  -75.90  -66.69  -57.10  -47.09  -37.06  -27.68  -19.12  -11.86   -7.12   -3.79   -1.61    -.45    -.07    -.01
0  3   -68.82  -66.69  -61.84  -54.92  -46.22  -36.73  -27.56  -19.07  -11.84   -7.11   -3.79   -1.61    -.45    -.07    -.01
0  4   -57.84  -57.10  -54.92  -50.83  -44.29  -35.94  -27.25  -18.95  -11.80   -7.09   -3.78   -1.60    -.45    -.07    -.01
0  5   -47.35  -47.09  -46.22  -44.29  -40.39  -34.09  -26.46  -18.64  -11.68   -7.04   -3.76   -1.60    -.45    -.07    -.01
0  6   -37.15  -37.06  -36.73  -35.94  -34.09  -30.31  -24.60  -17.84  -11.36   -6.90   -3.70   -1.58    -.45    -.07    -.01
0  7   -27.72  -27.68  -27.56  -27.25  -26.46  -24.60  -21.13  -16.11  -10.62   -6.57   -3.57   -1.53    -.44    -.07    -.01
0  8   -19.13  -19.12  -19.07  -18.95  -18.64  -17.84  -16.11  -13.10   -9.15   -5.86   -3.27   -1.43    -.41    -.07    -.01
0  9   -11.87  -11.86  -11.85  -11.80  -11.68  -11.36  -10.62   -9.15   -6.87   -4.64   -2.71   -1.23    -.37    -.06    -.01
0 10    -7.12   -7.12   -7.11   -7.09   -7.04   -6.90   -6.57   -5.86   -4.64   -3.31   -2.03    -.97    -.30    -.05    -.00
0 11    -3.79   -3.79   -3.79   -3.78   -3.76   -3.70   -3.57   -3.27   -2.71   -2.03   -1.32    -.67    -.22    -.04    -.00
0 12    -1.61   -1.61   -1.61   -1.60   -1.60   -1.58   -1.53   -1.43   -1.23    -.97    -.67    -.37    -.13    -.03    -.00
0 13     -.45    -.45    -.45    -.45    -.45    -.45    -.44    -.41    -.37    -.30    -.22    -.13    -.05    -.01    -.00
0 14     -.07    -.07    -.07    -.07    -.07    -.07    -.07    -.07    -.06    -.05    -.04    -.03    -.01    -.00     .00
0 15     -.01    -.01    -.01    -.01    -.01    -.01    -.01    -.01    -.01    -.00    -.00    -.00    -.00     .00     .00
0 16      .00     .00     .00     .00     .00     .00     .00     .00     .00     .00     .00     .00     .00     .00     .00
0 17      .00     .00     .00     .00     .00     .00     .00     .00     .00     .00     .00     .00     .00     .00     .00
0 18      .00     .00     .00     .00     .00     .00     .00     .00     .00     .00     .00     .00     .00     .00     .00
0 19      .00     .00     .00     .00     .00     .00     .00     .00     .00     .00     .00     .00     .00     .00     .00
0 20      .00     .00     .00     .00     .00     .00     .00     .00     .00     .00     .00     .00     .00     .00     .00
0 21      .00     .00     .00     .00     .00     .00     .00     .00     .00     .00     .00     .00     .00     .00     .00
0 22      .00     .00     .00     .00     .00     .00     .00     .00     .00     .00     .00     .00     .00     .00     .00
0 23      .00     .00     .00     .00     .00     .00     .00     .00     .00     .00     .00     .00     .00     .00     .00
0 24      .00     .00     .00     .00     .00     .00     .00     .00     .00     .00     .00     .00     .00     .00     .00
0 25      .00     .00     .00     .00     .00     .00     .00     .00     .00     .00     .00     .00     .00     .00     .00
1                      HEAD IN LAYER  3 AT END OF TIME STEP  9 IN STRESS PERIOD  1
           -----------------------------------------------------------------------

          16      17      18      19      20      21      22      23      24      25
 ........................................................................................
0  1      .00     .00     .00     .00     .00     .00     .00     .00     .00     .00
0  2      .00     .00     .00     .00     .00     .00     .00     .00     .00     .00
0  3      .00     .00     .00     .00     .00     .00     .00     .00     .00     .00
0  4      .00     .00     .00     .00     .00     .00     .00     .00     .00     .00
0  5      .00     .00     .00     .00     .00     .00     .00     .00     .00     .00
0  6      .00     .00     .00     .00     .00     .00     .00     .00     .00     .00
0  7      .00     .00     .00     .00     .00     .00     .00     .00     .00     .00
0  8      .00     .00     .00     .00     .00     .00     .00     .00     .00     .00
0  9      .00     .00     .00     .00     .00     .00     .00     .00     .00     .00
0 10      .00     .00     .00     .00     .00     .00     .00     .00     .00     .00
0 11      .00     .00     .00     .00     .00     .00     .00     .00     .00     .00
0 12      .00     .00     .00     .00     .00     .00     .00     .00     .00     .00
0 13      .00     .00     .00     .00     .00     .00     .00     .00     .00     .00
0 14      .00     .00     .00     .00     .00     .00     .00     .00     .00     .00
0 15      .00     .00     .00     .00     .00     .00     .00     .00     .00     .00
0 16      .00     .00     .00     .00     .00     .00     .00     .00     .00     .00
0 17      .00     .00     .00     .00     .00     .00     .00     .00     .00     .00
0 18      .00     .00     .00     .00     .00     .00     .00     .00     .00     .00
0 19      .00     .00     .00     .00     .00     .00     .00     .00     .00     .00
0 20      .00     .00     .00     .00     .00     .00     .00     .00     .00     .00
0 21      .00     .00     .00     .00     .00     .00     .00     .00     .00     .00
0 22      .00     .00     .00     .00     .00     .00     .00     .00     .00     .00
0 23      .00     .00     .00     .00     .00     .00     .00     .00     .00     .00
0 24      .00     .00     .00     .00     .00     .00     .00     .00     .00     .00
0 25      .00     .00     .00     .00     .00     .00     .00     .00     .00     .00
0


                              VOLUMETRIC BUDGET FOR ENTIRE MODEL AT END OF TIME STEP  9 IN STRESS PERIOD  1
                              -----------------------------------------------------------------------------
0                   CUMULATIVE VOLUMES      L**3                                     RATES FOR THIS TIME STEP      L**3/T
                    ------------------                                               ------------------------

                          IN:                                                                    IN:
                          ---                                                                    ---
                            STORAGE =    819.35                                                    STORAGE =    1.5707    
                      CONSTANT HEAD =    .23851E-01                                          CONSTANT HEAD =    .98363E-04
                              WELLS =    .00000                                                      WELLS =    .00000    
0                          TOTAL IN =    819.37                                                   TOTAL IN =    1.5707    
0                        OUT:                                                                   OUT:
                         ----                                                                   ----
                            STORAGE =    .00000                                                    STORAGE =    .00000    
                      CONSTANT HEAD =    .00000                                              CONSTANT HEAD =    .00000    
                              WELLS =    819.40                                                      WELLS =    1.5707    
0                         TOTAL OUT =    819.40                                                  TOTAL OUT =    1.5707    
0                          IN - OUT =   -.29419E-01                                               IN - OUT =   -.14305E-05
0               PERCENT DISCREPANCY =                -.00                              PERCENT DISCREPANCY =                 .00



0


          TIME SUMMARY AT END OF TIME STEP  9 IN STRESS PERIOD  1
                               SECONDS        MINUTES         HOURS          DAYS           YEARS
                           ---------------------------------------------------------------------------
      TIME STEP LENGTH         159.808        2.66346        .443910E-01    .184963E-02    .506400E-05
    STRESS PERIOD TIME         521.662        8.69436        .144906        .603775E-02    .165305E-04
 TOTAL SIMULATION TIME         521.662        8.69436        .144906        .603775E-02    .165305E-04
1
    16 ITERATIONS FOR TIME STEP  10 IN STRESS PERIOD  1
0MAXIMUM HEAD CHANGE FOR EACH ITERATION:
0 HEAD CHANGE LAYER,ROW,COL HEAD CHANGE LAYER,ROW,COL HEAD CHANGE LAYER,ROW,COL HEAD CHANGE LAYER,ROW,COL HEAD CHANGE LAYER,ROW,COL
 ------------------------------------------------------------------------------------------------------------------------------------
   -.8712     (  3,  9,  9)  -.8676     (  3,  8,  7)  -1.460     (  3,  1,  1)  -.8942     (  3,  1,  1)  -.9539     (  3,  5,  1)
    .8357E-01 (  3,  9,  1)   .6829E-01 (  3,  9,  3)   .5458E-01 (  3,  7,  5)  -.2081E-01 (  3,  4,  4)   .7913E-02 (  3,  6,  6)
   -.1445E-02 (  3,  5,  1)  -.2186E-02 (  3,  3,  3)  -.8862E-02 (  3,  1,  1)  -.1604E-02 (  3,  1,  1)  -.2114E-02 (  3,  6,  1)
    .2836E-03 (  3,  9,  1)
0
0HEAD/DRAWDOWN PRINTOUT FLAG = 1     TOTAL BUDGET PRINTOUT FLAG = 1     CELL-BY-CELL FLOW TERM FLAG = 0
 REUSING PREVIOUS VALUES OF IOFLG
1                      HEAD IN LAYER  3 AT END OF TIME STEP 10 IN STRESS PERIOD  1
           -----------------------------------------------------------------------

           1       2       3       4       5       6       7       8       9      10      11      12      13      14      15
 ................................................................................................................................
0  1  -105.58  -85.95  -72.29  -61.31  -50.80  -40.58  -31.08  -22.34  -14.75   -9.54   -5.64   -2.77    -.97    -.21    -.02
0  2   -85.95  -79.37  -70.16  -60.57  -50.54  -40.49  -31.04  -22.33  -14.75   -9.54   -5.64   -2.77    -.97    -.21    -.02
0  3   -72.29  -70.16  -65.31  -58.39  -49.68  -40.16  -30.92  -22.28  -14.73   -9.53   -5.63   -2.77    -.97    -.21    -.02
0  4   -61.31  -60.57  -58.39  -54.29  -47.74  -39.37  -30.60  -22.15  -14.68   -9.51   -5.62   -2.76    -.97    -.21    -.02
0  5   -50.80  -50.54  -49.68  -47.74  -43.83  -37.50  -29.81  -21.83  -14.55   -9.45   -5.60   -2.75    -.97    -.21    -.02
0  6   -40.58  -40.49  -40.16  -39.37  -37.50  -33.70  -27.92  -21.00  -14.21   -9.29   -5.53   -2.73    -.96    -.21    -.02
0  7   -31.08  -31.04  -30.92  -30.60  -29.81  -27.92  -24.38  -19.22  -13.42   -8.92   -5.36   -2.67    -.94    -.20    -.02
0  8   -22.34  -22.33  -22.28  -22.15  -21.83  -21.01  -19.22  -16.07  -11.83   -8.11   -4.99   -2.52    -.90    -.20    -.02
0  9   -14.75  -14.75  -14.73  -14.68  -14.55  -14.21  -13.42  -11.83   -9.29   -6.69   -4.28   -2.23    -.82    -.18    -.02
0 10    -9.54   -9.54   -9.53   -9.51   -9.45   -9.29   -8.92   -8.11   -6.69   -5.04   -3.37   -1.84    -.70    -.16    -.02
0 11    -5.64   -5.64   -5.63   -5.62   -5.60   -5.53   -5.36   -4.99   -4.28   -3.37   -2.37   -1.36    -.55    -.13    -.02
0 12    -2.77   -2.77   -2.77   -2.76   -2.75   -2.73   -2.67   -2.52   -2.23   -1.84   -1.36    -.83    -.36    -.09    -.01
0 13     -.97    -.97    -.97    -.97    -.97    -.96    -.94    -.90    -.82    -.70    -.55    -.36    -.17    -.05    -.01
0 14     -.21    -.21    -.21    -.21    -.21    -.21    -.20    -.20    -.18    -.16    -.13    -.09    -.05    -.02    -.00
0 15     -.02    -.02    -.02    -.02    -.02    -.02    -.02    -.02    -.02    -.02    -.02    -.01    -.01    -.00     .00
0 16     -.00    -.00    -.00    -.00    -.00    -.00    -.00    -.00    -.00    -.00    -.00     .00     .00     .00     .00
0 17      .00     .00     .00     .00     .00     .00     .00     .00     .00     .00     .00     .00     .00     .00     .00
0 18      .00     .00     .00     .00     .00     .00     .00     .00     .00     .00     .00     .00     .00     .00     .00
0 19      .00     .00     .00     .00     .00     .00     .00     .00     .00     .00     .00     .00     .00     .00     .00
0 20      .00     .00     .00     .00     .00     .00     .00     .00     .00     .00     .00     .00     .00     .00     .00
0 21      .00     .00     .00     .00     .00     .00     .00     .00     .00     .00     .00     .00     .00     .00     .00
0 22      .00     .00     .00     .00     .00     .00     .00     .00     .00     .00     .00     .00     .00     .00     .00
0 23      .00     .00     .00     .00     .00     .00     .00     .00     .00     .00     .00     .00     .00     .00     .00
0 24      .00     .00     .00     .00     .00     .00     .00     .00     .00     .00     .00     .00     .00     .00     .00
0 25      .00     .00     .00     .00     .00     .00     .00     .00     .00     .00     .00     .00     .00     .00     .00
1                      HEAD IN LAYER  3 AT END OF TIME STEP 10 IN STRESS PERIOD  1
           -----------------------------------------------------------------------

          16      17      18      19      20      21      22      23      24      25
 ........................................................................................
0  1     -.00     .00     .00     .00     .00     .00     .00     .00     .00     .00
0  2     -.00     .00     .00     .00     .00     .00     .00     .00     .00     .00
0  3     -.00     .00     .00     .00     .00     .00     .00     .00     .00     .00
0  4     -.00     .00     .00     .00     .00     .00     .00     .00     .00     .00
0  5     -.00     .00     .00     .00     .00     .00     .00     .00     .00     .00
0  6     -.00     .00     .00     .00     .00     .00     .00     .00     .00     .00
0  7     -.00     .00     .00     .00     .00     .00     .00     .00     .00     .00
0  8     -.00     .00     .00     .00     .00     .00     .00     .00     .00     .00
0  9     -.00     .00     .00     .00     .00     .00     .00     .00     .00     .00
0 10     -.00     .00     .00     .00     .00     .00     .00     .00     .00     .00
0 11     -.00     .00     .00     .00     .00     .00     .00     .00     .00     .00
0 12      .00     .00     .00     .00     .00     .00     .00     .00     .00     .00
0 13      .00     .00     .00     .00     .00     .00     .00     .00     .00     .00
0 14      .00     .00     .00     .00     .00     .00     .00     .00     .00     .00
0 15      .00     .00     .00     .00     .00     .00     .00     .00     .00     .00
0 16      .00     .00     .00     .00     .00     .00     .00     .00     .00     .00
0 17      .00     .00     .00     .00     .00     .00     .00     .00     .00     .00
0 18      .00     .00     .00     .00     .00     .00     .00     .00     .00     .00
0 19      .00     .00     .00     .00     .00     .00     .00     .00     .00     .00
0 20      .00     .00     .00     .00     .00     .00     .00     .00     .00     .00
0 21      .00     .00     .00     .00     .00     .00     .00     .00     .00     .00
0 22      .00     .00     .00     .00     .00     .00     .00     .00     .00     .00
0 23      .00     .00     .00     .00     .00     .00     .00     .00     .00     .00
0 24      .00     .00     .00     .00     .00     .00     .00     .00     .00     .00
0 25      .00     .00     .00     .00     .00     .00     .00     .00     .00     .00
0


                              VOLUMETRIC BUDGET FOR ENTIRE MODEL AT END OF TIME STEP 10 IN STRESS PERIOD  1
                              -----------------------------------------------------------------------------
0                   CUMULATIVE VOLUMES      L**3                                     RATES FOR THIS TIME STEP      L**3/T
                    ------------------                                               ------------------------

                          IN:                                                                    IN:
                          ---                                                                    ---
                            STORAGE =    1174.3                                                    STORAGE =    1.5706    
                      CONSTANT HEAD =    .68914E-01                                          CONSTANT HEAD =    .19942E-03
                              WELLS =    .00000                                                      WELLS =    .00000    
0                          TOTAL IN =    1174.3                                                   TOTAL IN =    1.5708    
0                        OUT:                                                                   OUT:
                         ----                                                                   ----
                            STORAGE =    .00000                                                    STORAGE =    .00000    
                      CONSTANT HEAD =    .00000                                              CONSTANT HEAD =    .00000    
                              WELLS =    1174.3                                                      WELLS =    1.5707    
0                         TOTAL OUT =    1174.3                                                  TOTAL OUT =    1.5707    
0                          IN - OUT =   -.17578E-01                                               IN - OUT =    .52214E-04
0               PERCENT DISCREPANCY =                -.00                              PERCENT DISCREPANCY =                 .00



0


          TIME SUMMARY AT END OF TIME STEP 10 IN STRESS PERIOD  1
                               SECONDS        MINUTES         HOURS          DAYS           YEARS
                           ---------------------------------------------------------------------------
      TIME STEP LENGTH         225.968        3.76613        .627689E-01    .261537E-02    .716050E-05
    STRESS PERIOD TIME         747.630        12.4605        .207675        .865312E-02    .236910E-04
 TOTAL SIMULATION TIME         747.630        12.4605        .207675        .865312E-02    .236910E-04
1
    16 ITERATIONS FOR TIME STEP  11 IN STRESS PERIOD  1
0MAXIMUM HEAD CHANGE FOR EACH ITERATION:
0 HEAD CHANGE LAYER,ROW,COL HEAD CHANGE LAYER,ROW,COL HEAD CHANGE LAYER,ROW,COL HEAD CHANGE LAYER,ROW,COL HEAD CHANGE LAYER,ROW,COL
 ------------------------------------------------------------------------------------------------------------------------------------
   -.7680     (  3,  9,  9)  -.8422     (  3, 10,  6)  -1.242     (  3,  1,  1)  -.9489     (  3,  1,  1)  -1.123     (  3,  5,  1)
    .8851E-01 (  3,  9,  1)   .8301E-01 (  3,  9,  3)   .7868E-01 (  3,  7,  5)   .5926E-01 (  3,  1,  1)  -.6605E-02 (  3,  1,  1)
   -.1376E-02 (  3,  7,  1)  -.1969E-02 (  3,  5,  2)  -.8446E-02 (  3,  1,  1)  -.2153E-02 (  3,  1,  1)  -.3373E-02 (  3,  5,  1)
    .3377E-03 (  3,  9,  1)
0
0HEAD/DRAWDOWN PRINTOUT FLAG = 1     TOTAL BUDGET PRINTOUT FLAG = 1     CELL-BY-CELL FLOW TERM FLAG = 0
 REUSING PREVIOUS VALUES OF IOFLG
1                      HEAD IN LAYER  3 AT END OF TIME STEP 11 IN STRESS PERIOD  1
           -----------------------------------------------------------------------

           1       2       3       4       5       6       7       8       9      10      11      12      13      14      15
 ................................................................................................................................
0  1  -108.95  -89.32  -75.65  -64.67  -54.16  -43.92  -34.37  -25.52  -17.71  -12.15   -7.79   -4.30   -1.80    -.49    -.07
0  2   -89.32  -82.74  -73.52  -63.93  -53.90  -43.82  -34.33  -25.51  -17.71  -12.15   -7.78   -4.30   -1.80    -.49    -.07
0  3   -75.65  -73.52  -68.67  -61.75  -53.03  -43.50  -34.21  -25.46  -17.69  -12.14   -7.78   -4.30   -1.80    -.49    -.07
0  4   -64.67  -63.93  -61.75  -57.65  -51.09  -42.70  -33.89  -25.33  -17.63  -12.12   -7.77   -4.29   -1.80    -.49    -.07
0  5   -54.16  -53.90  -53.03  -51.09  -47.17  -40.83  -33.08  -25.00  -17.50  -12.05   -7.74   -4.28   -1.80    -.49    -.07
0  6   -43.92  -43.82  -43.50  -42.70  -40.83  -37.01  -31.18  -24.16  -17.14  -11.88   -7.66   -4.25   -1.78    -.49    -.07
0  7   -34.37  -34.33  -34.21  -33.89  -33.08  -31.18  -27.60  -22.33  -16.31  -11.47   -7.47   -4.17   -1.76    -.48    -.07
0  8   -25.52  -25.51  -25.46  -25.33  -25.00  -24.16  -22.33  -19.08  -14.63  -10.59   -7.03   -3.98   -1.70    -.47    -.07
0  9   -17.71  -17.71  -17.69  -17.63  -17.50  -17.14  -16.31  -14.63  -11.89   -9.00   -6.19   -3.61   -1.57    -.44    -.07
0 10   -12.15  -12.15  -12.14  -12.12  -12.05  -11.88  -11.47  -10.59   -9.00   -7.09   -5.08   -3.07   -1.38    -.40    -.06
0 11    -7.79   -7.79   -7.78   -7.77   -7.74   -7.66   -7.47   -7.03   -6.19   -5.08   -3.80   -2.40   -1.13    -.34    -.05
0 12    -4.30   -4.30   -4.30   -4.29   -4.28   -4.25   -4.17   -3.98   -3.61   -3.07   -2.40   -1.60    -.80    -.26    -.04
0 13    -1.80   -1.80   -1.80   -1.80   -1.80   -1.78   -1.76   -1.70   -1.57   -1.38   -1.13    -.80    -.44    -.15    -.03
0 14     -.49    -.49    -.49    -.49    -.49    -.49    -.48    -.47    -.44    -.40    -.34    -.26    -.15    -.06    -.01
0 15     -.07    -.07    -.07    -.07    -.07    -.07    -.07    -.07    -.07    -.06    -.05    -.04    -.03    -.01    -.00
0 16     -.01    -.01    -.01    -.01    -.01    -.01    -.01    -.01    -.01    -.01    -.00    -.00    -.00    -.00     .00
0 17      .00     .00     .00     .00     .00     .00     .00     .00     .00     .00     .00     .00     .00     .00     .00
0 18      .00     .00     .00     .00     .00     .00     .00     .00     .00     .00     .00     .00     .00     .00     .00
0 19      .00     .00     .00     .00     .00     .00     .00     .00     .00     .00     .00     .00     .00     .00     .00
0 20      .00     .00     .00     .00     .00     .00     .00     .00     .00     .00     .00     .00     .00     .00     .00
0 21      .00     .00     .00     .00     .00     .00     .00     .00     .00     .00     .00     .00     .00     .00     .00
0 22      .00     .00     .00     .00     .00     .00     .00     .00     .00     .00     .00     .00     .00     .00     .00
0 23      .00     .00     .00     .00     .00     .00     .00     .00     .00     .00     .00     .00     .00     .00     .00
0 24      .00     .00     .00     .00     .00     .00     .00     .00     .00     .00     .00     .00     .00     .00     .00
0 25      .00     .00     .00     .00     .00     .00     .00     .00     .00     .00     .00     .00     .00     .00     .00
1                      HEAD IN LAYER  3 AT END OF TIME STEP 11 IN STRESS PERIOD  1
           -----------------------------------------------------------------------

          16      17      18      19      20      21      22      23      24      25
 ........................................................................................
0  1     -.01     .00     .00     .00     .00     .00     .00     .00     .00     .00
0  2     -.01     .00     .00     .00     .00     .00     .00     .00     .00     .00
0  3     -.01     .00     .00     .00     .00     .00     .00     .00     .00     .00
0  4     -.01     .00     .00     .00     .00     .00     .00     .00     .00     .00
0  5     -.01     .00     .00     .00     .00     .00     .00     .00     .00     .00
0  6     -.01     .00     .00     .00     .00     .00     .00     .00     .00     .00
0  7     -.01     .00     .00     .00     .00     .00     .00     .00     .00     .00
0  8     -.01     .00     .00     .00     .00     .00     .00     .00     .00     .00
0  9     -.01     .00     .00     .00     .00     .00     .00     .00     .00     .00
0 10     -.01     .00     .00     .00     .00     .00     .00     .00     .00     .00
0 11     -.00     .00     .00     .00     .00     .00     .00     .00     .00     .00
0 12     -.00     .00     .00     .00     .00     .00     .00     .00     .00     .00
0 13     -.00     .00     .00     .00     .00     .00     .00     .00     .00     .00
0 14     -.00     .00     .00     .00     .00     .00     .00     .00     .00     .00
0 15      .00     .00     .00     .00     .00     .00     .00     .00     .00     .00
0 16      .00     .00     .00     .00     .00     .00     .00     .00     .00     .00
0 17      .00     .00     .00     .00     .00     .00     .00     .00     .00     .00
0 18      .00     .00     .00     .00     .00     .00     .00     .00     .00     .00
0 19      .00     .00     .00     .00     .00     .00     .00     .00     .00     .00
0 20      .00     .00     .00     .00     .00     .00     .00     .00     .00     .00
0 21      .00     .00     .00     .00     .00     .00     .00     .00     .00     .00
0 22      .00     .00     .00     .00     .00     .00     .00     .00     .00     .00
0 23      .00     .00     .00     .00     .00     .00     .00     .00     .00     .00
0 24      .00     .00     .00     .00     .00     .00     .00     .00     .00     .00
0 25      .00     .00     .00     .00     .00     .00     .00     .00     .00     .00
0


                              VOLUMETRIC BUDGET FOR ENTIRE MODEL AT END OF TIME STEP 11 IN STRESS PERIOD  1
                              -----------------------------------------------------------------------------
0                   CUMULATIVE VOLUMES      L**3                                     RATES FOR THIS TIME STEP      L**3/T
                    ------------------                                               ------------------------

                          IN:                                                                    IN:
                          ---                                                                    ---
                            STORAGE =    1676.1                                                    STORAGE =    1.5705    
                      CONSTANT HEAD =    .19675                                              CONSTANT HEAD =    .40010E-03
                              WELLS =    .00000                                                      WELLS =    .00000    
0                          TOTAL IN =    1676.2                                                   TOTAL IN =    1.5709    
0                        OUT:                                                                   OUT:
                         ----                                                                   ----
                            STORAGE =    .00000                                                    STORAGE =    .00000    
                      CONSTANT HEAD =    .00000                                              CONSTANT HEAD =    .00000    
                              WELLS =    1676.2                                                      WELLS =    1.5707    
0                         TOTAL OUT =    1676.2                                                  TOTAL OUT =    1.5707    
0                          IN - OUT =    .23193E-01                                               IN - OUT =    .12767E-03
0               PERCENT DISCREPANCY =                 .00                              PERCENT DISCREPANCY =                 .01



0


          TIME SUMMARY AT END OF TIME STEP 11 IN STRESS PERIOD  1
                               SECONDS        MINUTES         HOURS          DAYS           YEARS
                           ---------------------------------------------------------------------------
      TIME STEP LENGTH         319.519        5.32531        .887552E-01    .369813E-02    .101249E-04
    STRESS PERIOD TIME         1067.15        17.7858        .296430        .123513E-01    .338159E-04
 TOTAL SIMULATION TIME         1067.15        17.7858        .296430        .123513E-01    .338159E-04
1
    16 ITERATIONS FOR TIME STEP  12 IN STRESS PERIOD  1
0MAXIMUM HEAD CHANGE FOR EACH ITERATION:
0 HEAD CHANGE LAYER,ROW,COL HEAD CHANGE LAYER,ROW,COL HEAD CHANGE LAYER,ROW,COL HEAD CHANGE LAYER,ROW,COL HEAD CHANGE LAYER,ROW,COL
 ------------------------------------------------------------------------------------------------------------------------------------
   -.6713     (  3,  9, 11)  -.8183     (  3, 10,  8)  -1.046     (  3,  6,  5)  -.9858     (  3,  1,  2)  -1.289     (  3,  4,  1)
    .8928E-01 (  3,  9,  1)   .9477E-01 (  3,  9,  3)   .1035     (  3,  7,  6)   .1443     (  3,  1,  1)  -.1547E-01 (  3,  3,  2)
   -.1590E-02 (  3,  8,  2)  -.1817E-02 (  3,  7,  2)  -.7299E-02 (  3,  1,  1)  -.2502E-02 (  3,  1,  1)  -.4510E-02 (  3,  5,  1)
    .3560E-03 (  3,  9,  1)
0
0HEAD/DRAWDOWN PRINTOUT FLAG = 1     TOTAL BUDGET PRINTOUT FLAG = 1     CELL-BY-CELL FLOW TERM FLAG = 0
 REUSING PREVIOUS VALUES OF IOFLG
1                      HEAD IN LAYER  3 AT END OF TIME STEP 12 IN STRESS PERIOD  1
           -----------------------------------------------------------------------

           1       2       3       4       5       6       7       8       9      10      11      12      13      14      15
 ................................................................................................................................
0  1  -112.19  -92.56  -78.90  -67.91  -57.40  -47.14  -37.56  -28.64  -20.67  -14.87  -10.15   -6.15   -2.98   -1.01    -.20
0  2   -92.56  -85.98  -76.77  -67.17  -57.13  -47.05  -37.53  -28.63  -20.67  -14.86  -10.15   -6.15   -2.98   -1.01    -.20
0  3   -78.90  -76.77  -71.92  -64.99  -56.27  -46.72  -37.40  -28.58  -20.65  -14.85  -10.14   -6.15   -2.98   -1.01    -.20
0  4   -67.91  -67.17  -64.99  -60.89  -54.33  -45.92  -37.08  -28.45  -20.60  -14.83  -10.13   -6.14   -2.97   -1.01    -.20
0  5   -57.40  -57.13  -56.27  -54.33  -50.40  -44.04  -36.27  -28.11  -20.46  -14.76  -10.10   -6.13   -2.97   -1.01    -.20
0  6   -47.14  -47.05  -46.72  -45.92  -44.04  -40.21  -34.36  -27.26  -20.09  -14.58  -10.01   -6.09   -2.96   -1.00    -.20
0  7   -37.56  -37.53  -37.40  -37.08  -36.27  -34.36  -30.74  -25.40  -19.23  -14.15   -9.79   -5.99   -2.92    -.99    -.20
0  8   -28.64  -28.63  -28.58  -28.45  -28.11  -27.26  -25.40  -22.08  -17.48  -13.20   -9.31   -5.77   -2.84    -.97    -.19
0  9   -20.67  -20.67  -20.65  -20.60  -20.46  -20.09  -19.23  -17.48  -14.60  -11.48   -8.36   -5.31   -2.66    -.93    -.19
0 10   -14.87  -14.86  -14.85  -14.83  -14.76  -14.58  -14.15  -13.20  -11.48   -9.38   -7.08   -4.64   -2.40    -.85    -.17
0 11   -10.15  -10.15  -10.14  -10.13  -10.10  -10.01   -9.79   -9.31   -8.36   -7.08   -5.55   -3.79   -2.03    -.75    -.16
0 12    -6.15   -6.15   -6.15   -6.14   -6.13   -6.09   -5.99   -5.77   -5.31   -4.64   -3.79   -2.71   -1.54    -.59    -.13
0 13    -2.98   -2.98   -2.98   -2.98   -2.97   -2.96   -2.92   -2.84   -2.66   -2.40   -2.03   -1.54    -.93    -.39    -.09
0 14    -1.01   -1.01   -1.01   -1.01   -1.01   -1.00    -.99    -.97    -.93    -.85    -.75    -.59    -.39    -.18    -.05
0 15     -.20    -.20    -.20    -.20    -.20    -.20    -.20    -.19    -.19    -.17    -.16    -.13    -.09    -.05    -.01
0 16     -.02    -.02    -.02    -.02    -.02    -.02    -.02    -.02    -.02    -.02    -.02    -.02    -.01    -.01    -.00
0 17     -.00    -.00    -.00    -.00    -.00    -.00    -.00    -.00    -.00    -.00    -.00    -.00     .00     .00     .00
0 18      .00     .00     .00     .00     .00     .00     .00     .00     .00     .00     .00     .00     .00     .00     .00
0 19      .00     .00     .00     .00     .00     .00     .00     .00     .00     .00     .00     .00     .00     .00     .00
0 20      .00     .00     .00     .00     .00     .00     .00     .00     .00     .00     .00     .00     .00     .00     .00
0 21      .00     .00     .00     .00     .00     .00     .00     .00     .00     .00     .00     .00     .00     .00     .00
0 22      .00     .00     .00     .00     .00     .00     .00     .00     .00     .00     .00     .00     .00     .00     .00
0 23      .00     .00     .00     .00     .00     .00     .00     .00     .00     .00     .00     .00     .00     .00     .00
0 24      .00     .00     .00     .00     .00     .00     .00     .00     .00     .00     .00     .00     .00     .00     .00
0 25      .00     .00     .00     .00     .00     .00     .00     .00     .00     .00     .00     .00     .00     .00     .00
1                      HEAD IN LAYER  3 AT END OF TIME STEP 12 IN STRESS PERIOD  1
           -----------------------------------------------------------------------

          16      17      18      19      20      21      22      23      24      25
 ........................................................................................
0  1     -.02    -.00     .00     .00     .00     .00     .00     .00     .00     .00
0  2     -.02    -.00     .00     .00     .00     .00     .00     .00     .00     .00
0  3     -.02    -.00     .00     .00     .00     .00     .00     .00     .00     .00
0  4     -.02    -.00     .00     .00     .00     .00     .00     .00     .00     .00
0  5     -.02    -.00     .00     .00     .00     .00     .00     .00     .00     .00
0  6     -.02    -.00     .00     .00     .00     .00     .00     .00     .00     .00
0  7     -.02    -.00     .00     .00     .00     .00     .00     .00     .00     .00
0  8     -.02    -.00     .00     .00     .00     .00     .00     .00     .00     .00
0  9     -.02    -.00     .00     .00     .00     .00     .00     .00     .00     .00
0 10     -.02    -.00     .00     .00     .00     .00     .00     .00     .00     .00
0 11     -.02    -.00     .00     .00     .00     .00     .00     .00     .00     .00
0 12     -.02    -.00     .00     .00     .00     .00     .00     .00     .00     .00
0 13     -.01     .00     .00     .00     .00     .00     .00     .00     .00     .00
0 14     -.01     .00     .00     .00     .00     .00     .00     .00     .00     .00
0 15     -.00     .00     .00     .00     .00     .00     .00     .00     .00     .00
0 16      .00     .00     .00     .00     .00     .00     .00     .00     .00     .00
0 17      .00     .00     .00     .00     .00     .00     .00     .00     .00     .00
0 18      .00     .00     .00     .00     .00     .00     .00     .00     .00     .00
0 19      .00     .00     .00     .00     .00     .00     .00     .00     .00     .00
0 20      .00     .00     .00     .00     .00     .00     .00     .00     .00     .00
0 21      .00     .00     .00     .00     .00     .00     .00     .00     .00     .00
0 22      .00     .00     .00     .00     .00     .00     .00     .00     .00     .00
0 23      .00     .00     .00     .00     .00     .00     .00     .00     .00     .00
0 24      .00     .00     .00     .00     .00     .00     .00     .00     .00     .00
0 25      .00     .00     .00     .00     .00     .00     .00     .00     .00     .00
0


                              VOLUMETRIC BUDGET FOR ENTIRE MODEL AT END OF TIME STEP 12 IN STRESS PERIOD  1
                              -----------------------------------------------------------------------------
0                   CUMULATIVE VOLUMES      L**3                                     RATES FOR THIS TIME STEP      L**3/T
                    ------------------                                               ------------------------

                          IN:                                                                    IN:
                          ---                                                                    ---
                            STORAGE =    2385.4                                                    STORAGE =    1.5702    
                      CONSTANT HEAD =    .55588                                              CONSTANT HEAD =    .79487E-03
                              WELLS =    .00000                                                      WELLS =    .00000    
0                          TOTAL IN =    2386.0                                                   TOTAL IN =    1.5710    
0                        OUT:                                                                   OUT:
                         ----                                                                   ----
                            STORAGE =    .00000                                                    STORAGE =    .00000    
                      CONSTANT HEAD =    .00000                                              CONSTANT HEAD =    .00000    
                              WELLS =    2385.9                                                      WELLS =    1.5707    
0                         TOTAL OUT =    2385.9                                                  TOTAL OUT =    1.5707    
0                          IN - OUT =    .11450                                                   IN - OUT =    .20218E-03
0               PERCENT DISCREPANCY =                 .00                              PERCENT DISCREPANCY =                 .01



0


          TIME SUMMARY AT END OF TIME STEP 12 IN STRESS PERIOD  1
                               SECONDS        MINUTES         HOURS          DAYS           YEARS
                           ---------------------------------------------------------------------------
      TIME STEP LENGTH         451.800        7.52999        .125500        .522916E-02    .143167E-04
    STRESS PERIOD TIME         1518.95        25.3158        .421930        .175804E-01    .481326E-04
 TOTAL SIMULATION TIME         1518.95        25.3158        .421930        .175804E-01    .481326E-04
1
    16 ITERATIONS FOR TIME STEP  13 IN STRESS PERIOD  1
0MAXIMUM HEAD CHANGE FOR EACH ITERATION:
0 HEAD CHANGE LAYER,ROW,COL HEAD CHANGE LAYER,ROW,COL HEAD CHANGE LAYER,ROW,COL HEAD CHANGE LAYER,ROW,COL HEAD CHANGE LAYER,ROW,COL
 ------------------------------------------------------------------------------------------------------------------------------------
   -.6406     (  3, 11, 11)  -.7775     (  3, 10,  9)  -.9603     (  3,  2,  9)  -.9986     (  3,  1,  2)  -1.440     (  3,  4,  1)
    .8608E-01 (  3,  9,  1)   .1058     (  3, 10,  5)   .1256     (  3,  7,  6)   .2334     (  3,  1,  1)  -.2540E-01 (  3,  7,  4)
   -.1440E-02 (  3,  8,  5)  -.1491E-02 (  3,  7,  3)  -.5138E-02 (  3,  1,  1)  -.2227E-02 (  3,  1,  1)  -.4595E-02 (  3,  5,  1)
    .2960E-03 (  3,  9,  1)
0
0HEAD/DRAWDOWN PRINTOUT FLAG = 1     TOTAL BUDGET PRINTOUT FLAG = 1     CELL-BY-CELL FLOW TERM FLAG = 0
 REUSING PREVIOUS VALUES OF IOFLG
1                      HEAD IN LAYER  3 AT END OF TIME STEP 13 IN STRESS PERIOD  1
           -----------------------------------------------------------------------

           1       2       3       4       5       6       7       8       9      10      11      12      13      14      15
 ................................................................................................................................
0  1  -115.29  -95.66  -82.00  -71.01  -60.49  -50.23  -40.63  -31.66  -23.58  -17.60  -12.62   -8.22   -4.47   -1.81    -.46
0  2   -95.66  -89.08  -79.87  -70.27  -60.23  -50.13  -40.59  -31.64  -23.58  -17.59  -12.62   -8.22   -4.47   -1.81    -.46
0  3   -82.00  -79.87  -75.02  -68.09  -59.36  -49.81  -40.46  -31.59  -23.55  -17.58  -12.61   -8.22   -4.47   -1.81    -.46
0  4   -71.01  -70.27  -68.09  -63.98  -57.42  -49.01  -40.14  -31.46  -23.50  -17.56  -12.60   -8.21   -4.46   -1.81    -.46
0  5   -60.49  -60.23  -59.36  -57.42  -53.49  -47.13  -39.33  -31.12  -23.36  -17.49  -12.56   -8.19   -4.46   -1.81    -.46
0  6   -50.23  -50.13  -49.81  -49.01  -47.13  -43.29  -37.41  -30.26  -22.98  -17.30  -12.47   -8.15   -4.44   -1.80    -.46
0  7   -40.63  -40.59  -40.46  -40.14  -39.33  -37.41  -33.77  -28.38  -22.10  -16.85  -12.24   -8.04   -4.40   -1.79    -.45
0  8   -31.66  -31.64  -31.59  -31.46  -31.12  -30.26  -28.38  -25.01  -20.31  -15.86  -11.72   -7.78   -4.29   -1.76    -.45
0  9   -23.58  -23.58  -23.55  -23.50  -23.36  -22.98  -22.10  -20.31  -17.33  -14.05  -10.69   -7.26   -4.07   -1.69    -.43
0 10   -17.60  -17.59  -17.58  -17.56  -17.49  -17.30  -16.85  -15.86  -14.05  -11.79   -9.27   -6.48   -3.73   -1.58    -.41
0 11   -12.62  -12.62  -12.61  -12.60  -12.57  -12.47  -12.24  -11.72  -10.69   -9.27   -7.54   -5.47   -3.26   -1.42    -.38
0 12    -8.22   -8.22   -8.22   -8.21   -8.19   -8.15   -8.04   -7.78   -7.26   -6.48   -5.47   -4.14   -2.58   -1.17    -.33
0 13    -4.47   -4.47   -4.47   -4.46   -4.46   -4.44   -4.40   -4.29   -4.07   -3.73   -3.26   -2.58   -1.71    -.83    -.25
0 14    -1.81   -1.81   -1.81   -1.81   -1.81   -1.80   -1.79   -1.76   -1.69   -1.58   -1.42   -1.17    -.83    -.44    -.14
0 15     -.46    -.46    -.46    -.46    -.46    -.46    -.45    -.45    -.43    -.41    -.38    -.33    -.25    -.14    -.05
0 16     -.07    -.07    -.07    -.07    -.07    -.07    -.07    -.07    -.07    -.06    -.06    -.05    -.04    -.03    -.01
0 17     -.01    -.01    -.01    -.01    -.01    -.01    -.01    -.01    -.01    -.01    -.01    -.01    -.00    -.00    -.00
0 18      .00     .00     .00     .00     .00     .00     .00     .00     .00     .00     .00     .00     .00     .00     .00
0 19      .00     .00     .00     .00     .00     .00     .00     .00     .00     .00     .00     .00     .00     .00     .00
0 20      .00     .00     .00     .00     .00     .00     .00     .00     .00     .00     .00     .00     .00     .00     .00
0 21      .00     .00     .00     .00     .00     .00     .00     .00     .00     .00     .00     .00     .00     .00     .00
0 22      .00     .00     .00     .00     .00     .00     .00     .00     .00     .00     .00     .00     .00     .00     .00
0 23      .00     .00     .00     .00     .00     .00     .00     .00     .00     .00     .00     .00     .00     .00     .00
0 24      .00     .00     .00     .00     .00     .00     .00     .00     .00     .00     .00     .00     .00     .00     .00
0 25      .00     .00     .00     .00     .00     .00     .00     .00     .00     .00     .00     .00     .00     .00     .00
1                      HEAD IN LAYER  3 AT END OF TIME STEP 13 IN STRESS PERIOD  1
           -----------------------------------------------------------------------

          16      17      18      19      20      21      22      23      24      25
 ........................................................................................
0  1     -.07    -.01     .00     .00     .00     .00     .00     .00     .00     .00
0  2     -.07    -.01     .00     .00     .00     .00     .00     .00     .00     .00
0  3     -.07    -.01     .00     .00     .00     .00     .00     .00     .00     .00
0  4     -.07    -.01     .00     .00     .00     .00     .00     .00     .00     .00
0  5     -.07    -.01     .00     .00     .00     .00     .00     .00     .00     .00
0  6     -.07    -.01     .00     .00     .00     .00     .00     .00     .00     .00
0  7     -.07    -.01     .00     .00     .00     .00     .00     .00     .00     .00
0  8     -.07    -.01     .00     .00     .00     .00     .00     .00     .00     .00
0  9     -.07    -.01     .00     .00     .00     .00     .00     .00     .00     .00
0 10     -.06    -.01     .00     .00     .00     .00     .00     .00     .00     .00
0 11     -.06    -.01     .00     .00     .00     .00     .00     .00     .00     .00
0 12     -.05    -.01     .00     .00     .00     .00     .00     .00     .00     .00
0 13     -.04    -.00     .00     .00     .00     .00     .00     .00     .00     .00
0 14     -.03    -.00     .00     .00     .00     .00     .00     .00     .00     .00
0 15     -.01    -.00     .00     .00     .00     .00     .00     .00     .00     .00
0 16     -.00     .00     .00     .00     .00     .00     .00     .00     .00     .00
0 17      .00     .00     .00     .00     .00     .00     .00     .00     .00     .00
0 18      .00     .00     .00     .00     .00     .00     .00     .00     .00     .00
0 19      .00     .00     .00     .00     .00     .00     .00     .00     .00     .00
0 20      .00     .00     .00     .00     .00     .00     .00     .00     .00     .00
0 21      .00     .00     .00     .00     .00     .00     .00     .00     .00     .00
0 22      .00     .00     .00     .00     .00     .00     .00     .00     .00     .00
0 23      .00     .00     .00     .00     .00     .00     .00     .00     .00     .00
0 24      .00     .00     .00     .00     .00     .00     .00     .00     .00     .00
0 25      .00     .00     .00     .00     .00     .00     .00     .00     .00     .00
0


                              VOLUMETRIC BUDGET FOR ENTIRE MODEL AT END OF TIME STEP 13 IN STRESS PERIOD  1
                              -----------------------------------------------------------------------------
0                   CUMULATIVE VOLUMES      L**3                                     RATES FOR THIS TIME STEP      L**3/T
                    ------------------                                               ------------------------

                          IN:                                                                    IN:
                          ---                                                                    ---
                            STORAGE =    3388.1                                                    STORAGE =    1.5694    
                      CONSTANT HEAD =    1.5544                                              CONSTANT HEAD =    .15630E-02
                              WELLS =    .00000                                                      WELLS =    .00000    
0                          TOTAL IN =    3389.6                                                   TOTAL IN =    1.5710    
0                        OUT:                                                                   OUT:
                         ----                                                                   ----
                            STORAGE =    .00000                                                    STORAGE =    .00000    
                      CONSTANT HEAD =    .00000                                              CONSTANT HEAD =    .00000    
                              WELLS =    3389.4                                                      WELLS =    1.5707    
0                         TOTAL OUT =    3389.4                                                  TOTAL OUT =    1.5707    
0                          IN - OUT =    .25854                                                   IN - OUT =    .22542E-03
0               PERCENT DISCREPANCY =                 .01                              PERCENT DISCREPANCY =                 .01



0


          TIME SUMMARY AT END OF TIME STEP 13 IN STRESS PERIOD  1
                               SECONDS        MINUTES         HOURS          DAYS           YEARS
                           ---------------------------------------------------------------------------
      TIME STEP LENGTH         638.845        10.6474        .177457        .739404E-02    .202438E-04
    STRESS PERIOD TIME         2157.79        35.9632        .599387        .249745E-01    .683763E-04
 TOTAL SIMULATION TIME         2157.79        35.9632        .599387        .249745E-01    .683763E-04
1
    12 ITERATIONS FOR TIME STEP  14 IN STRESS PERIOD  1
0MAXIMUM HEAD CHANGE FOR EACH ITERATION:
0 HEAD CHANGE LAYER,ROW,COL HEAD CHANGE LAYER,ROW,COL HEAD CHANGE LAYER,ROW,COL HEAD CHANGE LAYER,ROW,COL HEAD CHANGE LAYER,ROW,COL
 ------------------------------------------------------------------------------------------------------------------------------------
   -.6209     (  3, 12, 12)  -.7299     (  3, 10, 10)  -.8883     (  3,  2,  9)  -.9836     (  3,  1,  3)  -1.557     (  3,  3,  1)
    .7946E-01 (  3,  9,  1)   .1111     (  3, 10,  6)   .1416     (  3,  7,  6)   .3141     (  3,  1,  1)  -.3438E-01 (  3,  8,  6)
   -.1621E-02 (  3, 12, 11)  -.7678E-03 (  3, 11, 10)
0
0HEAD/DRAWDOWN PRINTOUT FLAG = 1     TOTAL BUDGET PRINTOUT FLAG = 1     CELL-BY-CELL FLOW TERM FLAG = 0
 REUSING PREVIOUS VALUES OF IOFLG
1                      HEAD IN LAYER  3 AT END OF TIME STEP 14 IN STRESS PERIOD  1
           -----------------------------------------------------------------------

           1       2       3       4       5       6       7       8       9      10      11      12      13      14      15
 ................................................................................................................................
0  1  -118.21  -98.58  -84.91  -73.92  -63.40  -53.14  -43.52  -34.52  -26.37  -20.26  -15.10  -10.41   -6.19   -2.89    -.91
0  2   -98.58  -91.99  -82.78  -73.19  -63.14  -53.04  -43.48  -34.50  -26.36  -20.26  -15.10  -10.40   -6.19   -2.89    -.91
0  3   -84.91  -82.78  -77.93  -71.00  -62.28  -52.71  -43.36  -34.45  -26.34  -20.25  -15.09  -10.40   -6.19   -2.89    -.91
0  4   -73.92  -73.19  -71.00  -66.89  -60.33  -51.91  -43.03  -34.32  -26.29  -20.22  -15.08  -10.40   -6.18   -2.89    -.91
0  5   -63.40  -63.14  -62.28  -60.33  -56.40  -50.03  -42.22  -33.98  -26.14  -20.15  -15.04  -10.38   -6.18   -2.89    -.91
0  6   -53.14  -53.04  -52.71  -51.91  -50.03  -46.18  -40.29  -33.11  -25.76  -19.96  -14.95  -10.33   -6.15   -2.88    -.91
0  7   -43.52  -43.48  -43.36  -43.03  -42.22  -40.29  -36.64  -31.22  -24.87  -19.49  -14.70  -10.21   -6.10   -2.86    -.90
0  8   -34.51  -34.50  -34.45  -34.32  -33.98  -33.11  -31.22  -27.82  -23.04  -18.47  -14.15   -9.93   -5.98   -2.82    -.89
0  9   -26.37  -26.36  -26.34  -26.28  -26.14  -25.76  -24.87  -23.04  -20.00  -16.60  -13.06   -9.35   -5.72   -2.73    -.87
0 10   -20.26  -20.26  -20.25  -20.22  -20.15  -19.95  -19.49  -18.47  -16.60  -14.23  -11.54   -8.49   -5.32   -2.58    -.83
0 11   -15.10  -15.10  -15.09  -15.08  -15.04  -14.94  -14.70  -14.15  -13.06  -11.54   -9.67   -7.35   -4.74   -2.36    -.78
0 12   -10.40  -10.40  -10.40  -10.39  -10.38  -10.33  -10.21   -9.93   -9.35   -8.49   -7.35   -5.80   -3.91   -2.02    -.69
0 13    -6.19   -6.19   -6.19   -6.18   -6.18   -6.15   -6.10   -5.98   -5.72   -5.32   -4.74   -3.91   -2.78   -1.53    -.55
0 14    -2.89   -2.89   -2.89   -2.89   -2.89   -2.88   -2.86   -2.82   -2.73   -2.58   -2.36   -2.02   -1.53    -.91    -.36
0 15     -.91    -.91    -.91    -.91    -.91    -.91    -.90    -.89    -.87    -.83    -.78    -.69    -.55    -.36    -.16
0 16     -.18    -.18    -.18    -.18    -.18    -.18    -.18    -.18    -.18    -.17    -.16    -.15    -.12    -.08    -.04
0 17     -.02    -.02    -.02    -.02    -.02    -.02    -.02    -.02    -.02    -.02    -.02    -.02    -.02    -.01    -.01
0 18     -.00    -.00    -.00    -.00    -.00    -.00    -.00    -.00    -.00    -.00    -.00    -.00    -.00    -.00     .00
0 19      .00     .00     .00     .00     .00     .00     .00     .00     .00     .00     .00     .00     .00     .00     .00
0 20      .00     .00     .00     .00     .00     .00     .00     .00     .00     .00     .00     .00     .00     .00     .00
0 21      .00     .00     .00     .00     .00     .00     .00     .00     .00     .00     .00     .00     .00     .00     .00
0 22      .00     .00     .00     .00     .00     .00     .00     .00     .00     .00     .00     .00     .00     .00     .00
0 23      .00     .00     .00     .00     .00     .00     .00     .00     .00     .00     .00     .00     .00     .00     .00
0 24      .00     .00     .00     .00     .00     .00     .00     .00     .00     .00     .00     .00     .00     .00     .00
0 25      .00     .00     .00     .00     .00     .00     .00     .00     .00     .00     .00     .00     .00     .00     .00
1                      HEAD IN LAYER  3 AT END OF TIME STEP 14 IN STRESS PERIOD  1
           -----------------------------------------------------------------------

          16      17      18      19      20      21      22      23      24      25
 ........................................................................................
0  1     -.18    -.02    -.00     .00     .00     .00     .00     .00     .00     .00
0  2     -.18    -.02    -.00     .00     .00     .00     .00     .00     .00     .00
0  3     -.18    -.02    -.00     .00     .00     .00     .00     .00     .00     .00
0  4     -.18    -.02    -.00     .00     .00     .00     .00     .00     .00     .00
0  5     -.18    -.02    -.00     .00     .00     .00     .00     .00     .00     .00
0  6     -.18    -.02    -.00     .00     .00     .00     .00     .00     .00     .00
0  7     -.18    -.02    -.00     .00     .00     .00     .00     .00     .00     .00
0  8     -.18    -.02    -.00     .00     .00     .00     .00     .00     .00     .00
0  9     -.18    -.02    -.00     .00     .00     .00     .00     .00     .00     .00
0 10     -.17    -.02    -.00     .00     .00     .00     .00     .00     .00     .00
0 11     -.16    -.02    -.00     .00     .00     .00     .00     .00     .00     .00
0 12     -.15    -.02    -.00     .00     .00     .00     .00     .00     .00     .00
0 13     -.12    -.02    -.00     .00     .00     .00     .00     .00     .00     .00
0 14     -.08    -.01    -.00     .00     .00     .00     .00     .00     .00     .00
0 15     -.04    -.01     .00     .00     .00     .00     .00     .00     .00     .00
0 16     -.01    -.00     .00     .00     .00     .00     .00     .00     .00     .00
0 17     -.00     .00     .00     .00     .00     .00     .00     .00     .00     .00
0 18      .00     .00     .00     .00     .00     .00     .00     .00     .00     .00
0 19      .00     .00     .00     .00     .00     .00     .00     .00     .00     .00
0 20      .00     .00     .00     .00     .00     .00     .00     .00     .00     .00
0 21      .00     .00     .00     .00     .00     .00     .00     .00     .00     .00
0 22      .00     .00     .00     .00     .00     .00     .00     .00     .00     .00
0 23      .00     .00     .00     .00     .00     .00     .00     .00     .00     .00
0 24      .00     .00     .00     .00     .00     .00     .00     .00     .00     .00
0 25      .00     .00     .00     .00     .00     .00     .00     .00     .00     .00
0


                              VOLUMETRIC BUDGET FOR ENTIRE MODEL AT END OF TIME STEP 14 IN STRESS PERIOD  1
                              -----------------------------------------------------------------------------
0                   CUMULATIVE VOLUMES      L**3                                     RATES FOR THIS TIME STEP      L**3/T
                    ------------------                                               ------------------------

                          IN:                                                                    IN:
                          ---                                                                    ---
                            STORAGE =    4803.9                                                    STORAGE =    1.5674    
                      CONSTANT HEAD =    4.2976                                              CONSTANT HEAD =    .30369E-02
                              WELLS =    .00000                                                      WELLS =    .00000    
0                          TOTAL IN =    4808.2                                                   TOTAL IN =    1.5704    
0                        OUT:                                                                   OUT:
                         ----                                                                   ----
                            STORAGE =    .00000                                                    STORAGE =    .00000    
                      CONSTANT HEAD =    .00000                                              CONSTANT HEAD =    .00000    
                              WELLS =    4808.3                                                      WELLS =    1.5707    
0                         TOTAL OUT =    4808.3                                                  TOTAL OUT =    1.5707    
0                          IN - OUT =   -.28809E-01                                               IN - OUT =   -.31865E-03
0               PERCENT DISCREPANCY =                 .00                              PERCENT DISCREPANCY =                -.02



0


          TIME SUMMARY AT END OF TIME STEP 14 IN STRESS PERIOD  1
                               SECONDS        MINUTES         HOURS          DAYS           YEARS
                           ---------------------------------------------------------------------------
      TIME STEP LENGTH         903.326        15.0554        .250924        .104552E-01    .286247E-04
    STRESS PERIOD TIME         3061.12        51.0187        .850311        .354296E-01    .970010E-04
 TOTAL SIMULATION TIME         3061.12        51.0187        .850311        .354296E-01    .970010E-04
1
    16 ITERATIONS FOR TIME STEP  15 IN STRESS PERIOD  1
0MAXIMUM HEAD CHANGE FOR EACH ITERATION:
0 HEAD CHANGE LAYER,ROW,COL HEAD CHANGE LAYER,ROW,COL HEAD CHANGE LAYER,ROW,COL HEAD CHANGE LAYER,ROW,COL HEAD CHANGE LAYER,ROW,COL
 ------------------------------------------------------------------------------------------------------------------------------------
   -.5935     (  3, 13, 12)  -.6564     (  3, 11, 10)  -.8119     (  3,  3, 10)  -.9357     (  3,  1,  4)  -1.625     (  3,  1,  1)
    .7024E-01 (  3,  9,  1)   .1100     (  3, 10,  6)   .1497     (  3,  7,  7)   .3736     (  3,  1,  1)  -.4003E-01 (  3,  9,  7)
    .3108E-02 (  3, 10,  1)   .1288E-02 (  3,  1, 11)   .2172E-02 (  3,  1,  1)   .1712E-02 (  3,  1,  2)   .3709E-02 (  3,  5,  1)
   -.1667E-03 (  3, 11,  5)
0
0HEAD/DRAWDOWN PRINTOUT FLAG = 1     TOTAL BUDGET PRINTOUT FLAG = 1     CELL-BY-CELL FLOW TERM FLAG = 0
 REUSING PREVIOUS VALUES OF IOFLG
1                      HEAD IN LAYER  3 AT END OF TIME STEP 15 IN STRESS PERIOD  1
           -----------------------------------------------------------------------

           1       2       3       4       5       6       7       8       9      10      11      12      13      14      15
 ................................................................................................................................
0  1  -120.90 -101.27  -87.61  -76.62  -66.10  -55.82  -46.20  -37.17  -28.97  -22.78  -17.50  -12.59   -8.02   -4.20   -1.58
0  2  -101.27  -94.69  -85.48  -75.88  -65.83  -55.73  -46.16  -37.16  -28.97  -22.78  -17.50  -12.59   -8.02   -4.20   -1.58
0  3   -87.61  -85.48  -80.62  -73.69  -64.97  -55.40  -46.03  -37.10  -28.94  -22.77  -17.49  -12.59   -8.02   -4.20   -1.58
0  4   -76.62  -75.88  -73.69  -69.59  -63.02  -54.60  -45.71  -36.97  -28.89  -22.74  -17.48  -12.58   -8.02   -4.20   -1.58
0  5   -66.10  -65.83  -64.97  -63.02  -59.09  -52.72  -44.90  -36.63  -28.74  -22.67  -17.44  -12.56   -8.01   -4.19   -1.58
0  6   -55.82  -55.73  -55.40  -54.60  -52.72  -48.87  -42.96  -35.76  -28.36  -22.47  -17.34  -12.51   -7.99   -4.18   -1.57
0  7   -46.20  -46.16  -46.03  -45.71  -44.90  -42.96  -39.30  -33.86  -27.46  -22.00  -17.08  -12.38   -7.93   -4.16   -1.57
0  8   -37.17  -37.16  -37.10  -36.97  -36.63  -35.76  -33.86  -30.43  -25.61  -20.96  -16.51  -12.08   -7.79   -4.11   -1.55
0  9   -28.97  -28.97  -28.94  -28.89  -28.74  -28.36  -27.46  -25.61  -22.52  -19.04  -15.38  -11.47   -7.50   -4.00   -1.52
0 10   -22.78  -22.78  -22.77  -22.74  -22.67  -22.47  -22.00  -20.96  -19.04  -16.59  -13.79  -10.54   -7.04   -3.81   -1.47
0 11   -17.50  -17.50  -17.49  -17.48  -17.44  -17.34  -17.08  -16.51  -15.38  -13.79  -11.80   -9.30   -6.39   -3.54   -1.39
0 12   -12.59  -12.59  -12.59  -12.58  -12.56  -12.51  -12.38  -12.08  -11.47  -10.54   -9.30   -7.59   -5.42   -3.11   -1.26
0 13    -8.02   -8.02   -8.02   -8.02   -8.01   -7.99   -7.93   -7.79   -7.50   -7.04   -6.39   -5.42   -4.06   -2.46   -1.04
0 14    -4.20   -4.20   -4.20   -4.20   -4.19   -4.18   -4.16   -4.11   -4.00   -3.81   -3.54   -3.11   -2.46   -1.59    -.73
0 15    -1.58   -1.58   -1.58   -1.58   -1.58   -1.57   -1.57   -1.55   -1.52   -1.47   -1.39   -1.26   -1.04    -.73    -.37
0 16     -.40    -.40    -.40    -.40    -.40    -.40    -.40    -.40    -.39    -.38    -.36    -.34    -.29    -.22    -.12
0 17     -.07    -.07    -.07    -.07    -.07    -.07    -.07    -.07    -.07    -.07    -.06    -.06    -.05    -.04    -.03
0 18     -.01    -.01    -.01    -.01    -.01    -.01    -.01    -.01    -.01    -.01    -.01    -.01    -.01    -.01    -.00
0 19     -.00    -.00    -.00    -.00    -.00    -.00    -.00    -.00    -.00    -.00    -.00    -.00    -.00    -.00     .00
0 20      .00     .00     .00     .00     .00     .00     .00     .00     .00     .00     .00     .00     .00     .00     .00
0 21      .00     .00     .00     .00     .00     .00     .00     .00     .00     .00     .00     .00     .00     .00     .00
0 22      .00     .00     .00     .00     .00     .00     .00     .00     .00     .00     .00     .00     .00     .00     .00
0 23      .00     .00     .00     .00     .00     .00     .00     .00     .00     .00     .00     .00     .00     .00     .00
0 24      .00     .00     .00     .00     .00     .00     .00     .00     .00     .00     .00     .00     .00     .00     .00
0 25      .00     .00     .00     .00     .00     .00     .00     .00     .00     .00     .00     .00     .00     .00     .00
1                      HEAD IN LAYER  3 AT END OF TIME STEP 15 IN STRESS PERIOD  1
           -----------------------------------------------------------------------

          16      17      18      19      20      21      22      23      24      25
 ........................................................................................
0  1     -.40    -.07    -.01    -.00     .00     .00     .00     .00     .00     .00
0  2     -.40    -.07    -.01    -.00     .00     .00     .00     .00     .00     .00
0  3     -.40    -.07    -.01    -.00     .00     .00     .00     .00     .00     .00
0  4     -.40    -.07    -.01    -.00     .00     .00     .00     .00     .00     .00
0  5     -.40    -.07    -.01    -.00     .00     .00     .00     .00     .00     .00
0  6     -.40    -.07    -.01    -.00     .00     .00     .00     .00     .00     .00
0  7     -.40    -.07    -.01    -.00     .00     .00     .00     .00     .00     .00
0  8     -.40    -.07    -.01    -.00     .00     .00     .00     .00     .00     .00
0  9     -.39    -.07    -.01    -.00     .00     .00     .00     .00     .00     .00
0 10     -.38    -.07    -.01    -.00     .00     .00     .00     .00     .00     .00
0 11     -.36    -.06    -.01    -.00     .00     .00     .00     .00     .00     .00
0 12     -.34    -.06    -.01    -.00     .00     .00     .00     .00     .00     .00
0 13     -.29    -.05    -.01    -.00     .00     .00     .00     .00     .00     .00
0 14     -.22    -.04    -.01    -.00     .00     .00     .00     .00     .00     .00
0 15     -.12    -.03    -.00     .00     .00     .00     .00     .00     .00     .00
0 16     -.04    -.01    -.00     .00     .00     .00     .00     .00     .00     .00
0 17     -.01    -.00     .00     .00     .00     .00     .00     .00     .00     .00
0 18     -.00     .00     .00     .00     .00     .00     .00     .00     .00     .00
0 19      .00     .00     .00     .00     .00     .00     .00     .00     .00     .00
0 20      .00     .00     .00     .00     .00     .00     .00     .00     .00     .00
0 21      .00     .00     .00     .00     .00     .00     .00     .00     .00     .00
0 22      .00     .00     .00     .00     .00     .00     .00     .00     .00     .00
0 23      .00     .00     .00     .00     .00     .00     .00     .00     .00     .00
0 24      .00     .00     .00     .00     .00     .00     .00     .00     .00     .00
0 25      .00     .00     .00     .00     .00     .00     .00     .00     .00     .00
0


                              VOLUMETRIC BUDGET FOR ENTIRE MODEL AT END OF TIME STEP 15 IN STRESS PERIOD  1
                              -----------------------------------------------------------------------------
0                   CUMULATIVE VOLUMES      L**3                                     RATES FOR THIS TIME STEP      L**3/T
                    ------------------                                               ------------------------

                          IN:                                                                    IN:
                          ---                                                                    ---
                            STORAGE =    6802.6                                                    STORAGE =    1.5648    
                      CONSTANT HEAD =    11.726                                              CONSTANT HEAD =    .58155E-02
                              WELLS =    .00000                                                      WELLS =    .00000    
0                          TOTAL IN =    6814.3                                                   TOTAL IN =    1.5706    
0                        OUT:                                                                   OUT:
                         ----                                                                   ----
                            STORAGE =    .00000                                                    STORAGE =    .00000    
                      CONSTANT HEAD =    .00000                                              CONSTANT HEAD =    .00000    
                              WELLS =    6814.6                                                      WELLS =    1.5707    
0                         TOTAL OUT =    6814.6                                                  TOTAL OUT =    1.5707    
0                          IN - OUT =   -.25977                                                   IN - OUT =   -.18048E-03
0               PERCENT DISCREPANCY =                -.00                              PERCENT DISCREPANCY =                -.01



0


          TIME SUMMARY AT END OF TIME STEP 15 IN STRESS PERIOD  1
                               SECONDS        MINUTES         HOURS          DAYS           YEARS
                           ---------------------------------------------------------------------------
      TIME STEP LENGTH         1277.30        21.2884        .354807        .147836E-01    .404753E-04
    STRESS PERIOD TIME         4338.42        72.3070        1.20512        .502132E-01    .137476E-03
 TOTAL SIMULATION TIME         4338.42        72.3070        1.20512        .502132E-01    .137476E-03
1
    16 ITERATIONS FOR TIME STEP  16 IN STRESS PERIOD  1
0MAXIMUM HEAD CHANGE FOR EACH ITERATION:
0 HEAD CHANGE LAYER,ROW,COL HEAD CHANGE LAYER,ROW,COL HEAD CHANGE LAYER,ROW,COL HEAD CHANGE LAYER,ROW,COL HEAD CHANGE LAYER,ROW,COL
 ------------------------------------------------------------------------------------------------------------------------------------
   -.5596     (  3, 13, 13)  -.5763     (  3, 12, 10)  -.7116     (  3,  2, 11)  -.8545     (  3,  1,  4)  -1.621     (  3,  1,  1)
    .6147E-01 (  3, 12,  5)   .1037     (  3, 11,  7)   .1483     (  3,  8,  6)   .4018     (  3,  1,  1)  -.4231E-01 (  3,  9,  7)
    .4584E-02 (  3, 10,  1)   .2663E-02 (  3,  9,  2)   .6402E-02 (  3,  1,  1)   .5277E-02 (  3,  1,  2)   .1366E-01 (  3,  4,  1)
   -.5467E-03 (  3, 12,  6)
0
0HEAD/DRAWDOWN PRINTOUT FLAG = 1     TOTAL BUDGET PRINTOUT FLAG = 1     CELL-BY-CELL FLOW TERM FLAG = 0
 REUSING PREVIOUS VALUES OF IOFLG
1                      HEAD IN LAYER  3 AT END OF TIME STEP 16 IN STRESS PERIOD  1
           -----------------------------------------------------------------------

           1       2       3       4       5       6       7       8       9      10      11      12      13      14      15
 ................................................................................................................................
0  1  -123.32 -103.68  -90.02  -79.03  -68.51  -58.23  -48.60  -39.56  -31.33  -25.08  -19.71  -14.66   -9.85   -5.62   -2.44
0  2  -103.68  -97.10  -87.89  -78.29  -68.25  -58.14  -48.56  -39.54  -31.32  -25.08  -19.71  -14.66   -9.85   -5.62   -2.44
0  3   -90.02  -87.89  -83.04  -76.11  -67.38  -57.81  -48.44  -39.49  -31.30  -25.07  -19.71  -14.66   -9.85   -5.62   -2.44
0  4   -79.03  -78.29  -76.11  -72.00  -65.43  -57.01  -48.11  -39.36  -31.24  -25.04  -19.69  -14.65   -9.84   -5.62   -2.44
0  5   -68.51  -68.25  -67.38  -65.43  -61.50  -55.12  -47.30  -39.02  -31.10  -24.97  -19.65  -14.63   -9.83   -5.61   -2.44
0  6   -58.23  -58.14  -57.81  -57.01  -55.12  -51.27  -45.36  -38.15  -30.71  -24.77  -19.55  -14.58   -9.81   -5.60   -2.43
0  7   -48.60  -48.56  -48.44  -48.11  -47.30  -45.36  -41.70  -36.24  -29.80  -24.29  -19.29  -14.44   -9.75   -5.58   -2.43
0  8   -39.56  -39.54  -39.49  -39.36  -39.02  -38.15  -36.24  -32.80  -27.94  -23.24  -18.71  -14.14   -9.60   -5.52   -2.41
0  9   -31.33  -31.32  -31.30  -31.24  -31.10  -30.71  -29.80  -27.94  -24.82  -21.28  -17.55  -13.50   -9.29   -5.39   -2.37
0 10   -25.08  -25.08  -25.07  -25.04  -24.97  -24.77  -24.29  -23.24  -21.28  -18.79  -15.91  -12.52   -8.79   -5.17   -2.30
0 11   -19.71  -19.71  -19.71  -19.69  -19.65  -19.55  -19.29  -18.71  -17.55  -15.90  -13.84  -11.21   -8.08   -4.86   -2.19
0 12   -14.66  -14.66  -14.66  -14.65  -14.63  -14.58  -14.44  -14.14  -13.50  -12.52  -11.21   -9.38   -7.00   -4.35   -2.01
0 13    -9.85   -9.85   -9.85   -9.84   -9.83   -9.81   -9.75   -9.60   -9.29   -8.79   -8.08   -7.00   -5.46   -3.56   -1.72
0 14    -5.62   -5.62   -5.62   -5.62   -5.61   -5.60   -5.58   -5.52   -5.39   -5.17   -4.86   -4.35   -3.56   -2.47   -1.28
0 15    -2.44   -2.44   -2.44   -2.44   -2.44   -2.43   -2.43   -2.41   -2.37   -2.30   -2.19   -2.01   -1.72   -1.28    -.72
0 16     -.76    -.76    -.76    -.76    -.76    -.76    -.76    -.75    -.74    -.72    -.70    -.65    -.58    -.45    -.28
0 17     -.17    -.17    -.17    -.17    -.17    -.17    -.17    -.17    -.16    -.16    -.16    -.15    -.13    -.11    -.07
0 18     -.03    -.03    -.03    -.03    -.03    -.03    -.03    -.03    -.03    -.03    -.03    -.03    -.03    -.02    -.02
0 19     -.01    -.01    -.01    -.01    -.01    -.01    -.01    -.01    -.01    -.01    -.01    -.01    -.01    -.00    -.00
0 20     -.00    -.00    -.00    -.00    -.00    -.00    -.00    -.00    -.00    -.00    -.00    -.00     .00     .00     .00
0 21      .00     .00     .00     .00     .00     .00     .00     .00     .00     .00     .00     .00     .00     .00     .00
0 22      .00     .00     .00     .00     .00     .00     .00     .00     .00     .00     .00     .00     .00     .00     .00
0 23      .00     .00     .00     .00     .00     .00     .00     .00     .00     .00     .00     .00     .00     .00     .00
0 24      .00     .00     .00     .00     .00     .00     .00     .00     .00     .00     .00     .00     .00     .00     .00
0 25      .00     .00     .00     .00     .00     .00     .00     .00     .00     .00     .00     .00     .00     .00     .00
1                      HEAD IN LAYER  3 AT END OF TIME STEP 16 IN STRESS PERIOD  1
           -----------------------------------------------------------------------

          16      17      18      19      20      21      22      23      24      25
 ........................................................................................
0  1     -.76    -.17    -.03    -.01    -.00     .00     .00     .00     .00     .00
0  2     -.76    -.17    -.03    -.01    -.00     .00     .00     .00     .00     .00
0  3     -.76    -.17    -.03    -.01    -.00     .00     .00     .00     .00     .00
0  4     -.76    -.17    -.03    -.01    -.00     .00     .00     .00     .00     .00
0  5     -.76    -.17    -.03    -.01    -.00     .00     .00     .00     .00     .00
0  6     -.76    -.17    -.03    -.01    -.00     .00     .00     .00     .00     .00
0  7     -.76    -.17    -.03    -.01    -.00     .00     .00     .00     .00     .00
0  8     -.75    -.17    -.03    -.01    -.00     .00     .00     .00     .00     .00
0  9     -.74    -.16    -.03    -.01    -.00     .00     .00     .00     .00     .00
0 10     -.72    -.16    -.03    -.01    -.00     .00     .00     .00     .00     .00
0 11     -.70    -.16    -.03    -.01    -.00     .00     .00     .00     .00     .00
0 12     -.65    -.15    -.03    -.01    -.00     .00     .00     .00     .00     .00
0 13     -.58    -.13    -.03    -.01     .00     .00     .00     .00     .00     .00
0 14     -.45    -.11    -.02    -.00     .00     .00     .00     .00     .00     .00
0 15     -.28    -.07    -.02    -.00     .00     .00     .00     .00     .00     .00
0 16     -.12    -.04    -.01    -.00     .00     .00     .00     .00     .00     .00
0 17     -.04    -.01    -.00     .00     .00     .00     .00     .00     .00     .00
0 18     -.01    -.00     .00     .00     .00     .00     .00     .00     .00     .00
0 19     -.00     .00     .00     .00     .00     .00     .00     .00     .00     .00
0 20      .00     .00     .00     .00     .00     .00     .00     .00     .00     .00
0 21      .00     .00     .00     .00     .00     .00     .00     .00     .00     .00
0 22      .00     .00     .00     .00     .00     .00     .00     .00     .00     .00
0 23      .00     .00     .00     .00     .00     .00     .00     .00     .00     .00
0 24      .00     .00     .00     .00     .00     .00     .00     .00     .00     .00
0 25      .00     .00     .00     .00     .00     .00     .00     .00     .00     .00
0


                              VOLUMETRIC BUDGET FOR ENTIRE MODEL AT END OF TIME STEP 16 IN STRESS PERIOD  1
                              -----------------------------------------------------------------------------
0                   CUMULATIVE VOLUMES      L**3                                     RATES FOR THIS TIME STEP      L**3/T
                    ------------------                                               ------------------------

                          IN:                                                                    IN:
                          ---                                                                    ---
                            STORAGE =    9618.5                                                    STORAGE =    1.5591    
                      CONSTANT HEAD =    31.474                                              CONSTANT HEAD =    .10934E-01
                              WELLS =    .00000                                                      WELLS =    .00000    
0                          TOTAL IN =    9650.0                                                   TOTAL IN =    1.5701    
0                        OUT:                                                                   OUT:
                         ----                                                                   ----
                            STORAGE =    .00000                                                    STORAGE =    .00000    
                      CONSTANT HEAD =    .00000                                              CONSTANT HEAD =    .00000    
                              WELLS =    9651.5                                                      WELLS =    1.5707    
0                         TOTAL OUT =    9651.5                                                  TOTAL OUT =    1.5707    
0                          IN - OUT =   -1.5088                                                   IN - OUT =   -.69165E-03
0               PERCENT DISCREPANCY =                -.02                              PERCENT DISCREPANCY =                -.04



0


          TIME SUMMARY AT END OF TIME STEP 16 IN STRESS PERIOD  1
                               SECONDS        MINUTES         HOURS          DAYS           YEARS
                           ---------------------------------------------------------------------------
      TIME STEP LENGTH         1806.11        30.1018        .501696        .209040E-01    .572321E-04
    STRESS PERIOD TIME         6144.53        102.409        1.70681        .711173E-01    .194708E-03
 TOTAL SIMULATION TIME         6144.53        102.409        1.70681        .711173E-01    .194708E-03
1
    16 ITERATIONS FOR TIME STEP  17 IN STRESS PERIOD  1
0MAXIMUM HEAD CHANGE FOR EACH ITERATION:
0 HEAD CHANGE LAYER,ROW,COL HEAD CHANGE LAYER,ROW,COL HEAD CHANGE LAYER,ROW,COL HEAD CHANGE LAYER,ROW,COL HEAD CHANGE LAYER,ROW,COL
 ------------------------------------------------------------------------------------------------------------------------------------
   -.5671     (  2,  5,  6)  -.4931     (  3, 12, 11)  -.6042     (  3,  2, 11)  -.7445     (  3,  1,  5)  -1.536     (  3,  1,  1)
    .5626E-01 (  3, 13,  7)   .9362E-01 (  3, 11,  7)   .1381     (  3,  8,  7)   .3943     (  3,  1,  1)  -.4061E-01 (  3, 10,  8)
    .5667E-02 (  3, 10,  1)   .4216E-02 (  3,  9,  2)   .9928E-02 (  3,  1,  1)   .9013E-02 (  3,  1,  2)   .2617E-01 (  3,  4,  1)
   -.9495E-03 (  3, 12,  7)
0
0HEAD/DRAWDOWN PRINTOUT FLAG = 1     TOTAL BUDGET PRINTOUT FLAG = 1     CELL-BY-CELL FLOW TERM FLAG = 0
 REUSING PREVIOUS VALUES OF IOFLG
1                      HEAD IN LAYER  3 AT END OF TIME STEP 17 IN STRESS PERIOD  1
           -----------------------------------------------------------------------

           1       2       3       4       5       6       7       8       9      10      11      12      13      14      15
 ................................................................................................................................
0  1  -125.40 -105.77  -92.11  -81.11  -70.59  -60.32  -50.68  -41.63  -33.37  -27.09  -21.67  -16.52  -11.54   -7.03   -3.41
0  2  -105.77  -99.19  -89.98  -80.38  -70.33  -60.22  -50.64  -41.61  -33.37  -27.09  -21.67  -16.52  -11.54   -7.03   -3.41
0  3   -92.11  -89.98  -85.12  -78.19  -69.46  -59.89  -50.51  -41.56  -33.35  -27.08  -21.66  -16.52  -11.54   -7.03   -3.41
0  4   -81.11  -80.38  -78.19  -74.08  -67.52  -59.09  -50.19  -41.43  -33.29  -27.05  -21.65  -16.51  -11.54   -7.02   -3.41
0  5   -70.59  -70.33  -69.46  -67.52  -63.59  -57.20  -49.38  -41.09  -33.14  -26.98  -21.61  -16.49  -11.53   -7.02   -3.40
0  6   -60.32  -60.22  -59.89  -59.09  -57.20  -53.35  -47.44  -40.21  -32.76  -26.78  -21.50  -16.44  -11.50   -7.01   -3.40
0  7   -50.68  -50.64  -50.51  -50.19  -49.37  -47.44  -43.77  -38.30  -31.84  -26.29  -21.24  -16.30  -11.44   -6.98   -3.39
0  8   -41.63  -41.61  -41.56  -41.43  -41.09  -40.21  -38.30  -34.85  -29.97  -25.23  -20.65  -15.98  -11.28   -6.92   -3.37
0  9   -33.37  -33.37  -33.35  -33.29  -33.14  -32.76  -31.84  -29.97  -26.83  -23.26  -19.47  -15.33  -10.96   -6.77   -3.32
0 10   -27.09  -27.09  -27.08  -27.05  -26.98  -26.78  -26.29  -25.23  -23.26  -20.73  -17.80  -14.32  -10.43   -6.54   -3.24
0 11   -21.67  -21.67  -21.66  -21.65  -21.61  -21.50  -21.24  -20.65  -19.47  -17.80  -15.69  -12.96   -9.68   -6.19   -3.11
0 12   -16.52  -16.52  -16.52  -16.51  -16.49  -16.44  -16.30  -15.98  -15.33  -14.32  -12.96  -11.05   -8.53   -5.62   -2.89
0 13   -11.54  -11.54  -11.54  -11.54  -11.53  -11.50  -11.44  -11.28  -10.96  -10.43   -9.68   -8.53   -6.86   -4.73   -2.54
0 14    -7.03   -7.02   -7.02   -7.02   -7.02   -7.01   -6.98   -6.92   -6.77   -6.54   -6.19   -5.62   -4.73   -3.45   -1.97
0 15    -3.41   -3.41   -3.41   -3.41   -3.40   -3.40   -3.39   -3.37   -3.32   -3.24   -3.11   -2.89   -2.54   -1.97   -1.22
0 16    -1.25   -1.25   -1.25   -1.25   -1.25   -1.25   -1.24   -1.24   -1.22   -1.20   -1.16   -1.10   -1.00    -.81    -.55
0 17     -.34    -.34    -.34    -.34    -.34    -.34    -.34    -.34    -.33    -.33    -.32    -.31    -.28    -.24    -.17
0 18     -.08    -.08    -.08    -.08    -.08    -.08    -.08    -.08    -.08    -.08    -.08    -.08    -.07    -.06    -.05
0 19     -.02    -.02    -.02    -.02    -.02    -.02    -.02    -.02    -.02    -.02    -.02    -.02    -.02    -.01    -.01
0 20     -.00    -.00    -.00    -.00    -.00    -.00    -.00    -.00    -.00    -.00    -.00    -.00    -.00    -.00    -.00
0 21      .00     .00     .00     .00     .00     .00     .00     .00     .00     .00     .00     .00     .00     .00     .00
0 22      .00     .00     .00     .00     .00     .00     .00     .00     .00     .00     .00     .00     .00     .00     .00
0 23      .00     .00     .00     .00     .00     .00     .00     .00     .00     .00     .00     .00     .00     .00     .00
0 24      .00     .00     .00     .00     .00     .00     .00     .00     .00     .00     .00     .00     .00     .00     .00
0 25      .00     .00     .00     .00     .00     .00     .00     .00     .00     .00     .00     .00     .00     .00     .00
1                      HEAD IN LAYER  3 AT END OF TIME STEP 17 IN STRESS PERIOD  1
           -----------------------------------------------------------------------

          16      17      18      19      20      21      22      23      24      25
 ........................................................................................
0  1    -1.25    -.34    -.08    -.02    -.00     .00     .00     .00     .00     .00
0  2    -1.25    -.34    -.08    -.02    -.00     .00     .00     .00     .00     .00
0  3    -1.25    -.34    -.08    -.02    -.00     .00     .00     .00     .00     .00
0  4    -1.25    -.34    -.08    -.02    -.00     .00     .00     .00     .00     .00
0  5    -1.25    -.34    -.08    -.02    -.00     .00     .00     .00     .00     .00
0  6    -1.25    -.34    -.08    -.02    -.00     .00     .00     .00     .00     .00
0  7    -1.24    -.34    -.08    -.02    -.00     .00     .00     .00     .00     .00
0  8    -1.24    -.34    -.08    -.02    -.00     .00     .00     .00     .00     .00
0  9    -1.22    -.33    -.08    -.02    -.00     .00     .00     .00     .00     .00
0 10    -1.20    -.33    -.08    -.02    -.00     .00     .00     .00     .00     .00
0 11    -1.16    -.32    -.08    -.02    -.00     .00     .00     .00     .00     .00
0 12    -1.10    -.31    -.08    -.02    -.00     .00     .00     .00     .00     .00
0 13    -1.00    -.28    -.07    -.02    -.00     .00     .00     .00     .00     .00
0 14     -.81    -.24    -.06    -.01    -.00     .00     .00     .00     .00     .00
0 15     -.55    -.17    -.05    -.01    -.00     .00     .00     .00     .00     .00
0 16     -.27    -.09    -.03    -.01    -.00     .00     .00     .00     .00     .00
0 17     -.09    -.04    -.01    -.00     .00     .00     .00     .00     .00     .00
0 18     -.03    -.01    -.00    -.00     .00     .00     .00     .00     .00     .00
0 19     -.01    -.00    -.00     .00     .00     .00     .00     .00     .00     .00
0 20     -.00     .00     .00     .00     .00     .00     .00     .00     .00     .00
0 21      .00     .00     .00     .00     .00     .00     .00     .00     .00     .00
0 22      .00     .00     .00     .00     .00     .00     .00     .00     .00     .00
0 23      .00     .00     .00     .00     .00     .00     .00     .00     .00     .00
0 24      .00     .00     .00     .00     .00     .00     .00     .00     .00     .00
0 25      .00     .00     .00     .00     .00     .00     .00     .00     .00     .00
0


                              VOLUMETRIC BUDGET FOR ENTIRE MODEL AT END OF TIME STEP 17 IN STRESS PERIOD  1
                              -----------------------------------------------------------------------------
0                   CUMULATIVE VOLUMES      L**3                                     RATES FOR THIS TIME STEP      L**3/T
                    ------------------                                               ------------------------

                          IN:                                                                    IN:
                          ---                                                                    ---
                            STORAGE =    13575.                                                    STORAGE =    1.5493    
                      CONSTANT HEAD =    82.778                                              CONSTANT HEAD =    .20089E-01
                              WELLS =    .00000                                                      WELLS =    .00000    
0                          TOTAL IN =    13658.                                                   TOTAL IN =    1.5694    
0                        OUT:                                                                   OUT:
                         ----                                                                   ----
                            STORAGE =    .00000                                                    STORAGE =    .00000    
                      CONSTANT HEAD =    .00000                                              CONSTANT HEAD =    .00000    
                              WELLS =    13663.                                                      WELLS =    1.5707    
0                         TOTAL OUT =    13663.                                                  TOTAL OUT =    1.5707    
0                          IN - OUT =   -4.8945                                                   IN - OUT =   -.13257E-02
0               PERCENT DISCREPANCY =                -.04                              PERCENT DISCREPANCY =                -.08



0


          TIME SUMMARY AT END OF TIME STEP 17 IN STRESS PERIOD  1
                               SECONDS        MINUTES         HOURS          DAYS           YEARS
                           ---------------------------------------------------------------------------
      TIME STEP LENGTH         2553.84        42.5639        .709399        .295583E-01    .809262E-04
    STRESS PERIOD TIME         8698.37        144.973        2.41621        .100676        .275635E-03
 TOTAL SIMULATION TIME         8698.37        144.973        2.41621        .100676        .275635E-03
1
    20 ITERATIONS FOR TIME STEP  18 IN STRESS PERIOD  1
0MAXIMUM HEAD CHANGE FOR EACH ITERATION:
0 HEAD CHANGE LAYER,ROW,COL HEAD CHANGE LAYER,ROW,COL HEAD CHANGE LAYER,ROW,COL HEAD CHANGE LAYER,ROW,COL HEAD CHANGE LAYER,ROW,COL
 ------------------------------------------------------------------------------------------------------------------------------------
   -.7611     (  2,  6,  6)  -.4865     (  2,  2,  2)  -.4893     (  3,  1, 12)  -.6166     (  3,  1,  5)  -1.375     (  3,  1,  1)
    .4796E-01 (  3, 13,  7)   .8031E-01 (  3, 12,  8)   .1205     (  3,  9,  7)   .3550     (  3,  1,  1)  -.3564E-01 (  3, 10,  8)
    .6092E-02 (  3, 10,  1)   .5263E-02 (  3, 10,  2)   .1203E-01 (  3,  1,  1)   .1189E-01 (  3,  1,  2)   .3815E-01 (  3,  4,  1)
   -.1338E-02 (  3, 13,  8)  -.2374E-02 (  3, 12,  9)  -.3498E-02 (  3,  9,  7)  -.6985E-02 (  3,  1,  1)   .5674E-03 (  3, 12,  9)
0
0HEAD/DRAWDOWN PRINTOUT FLAG = 1     TOTAL BUDGET PRINTOUT FLAG = 1     CELL-BY-CELL FLOW TERM FLAG = 0
 REUSING PREVIOUS VALUES OF IOFLG
1                      HEAD IN LAYER  3 AT END OF TIME STEP 18 IN STRESS PERIOD  1
           -----------------------------------------------------------------------

           1       2       3       4       5       6       7       8       9      10      11      12      13      14      15
 ................................................................................................................................
0  1  -127.14 -107.51  -93.84  -82.85  -72.33  -62.05  -52.41  -43.35  -35.09  -28.78  -23.32  -18.11  -13.02   -8.31   -4.37
0  2  -107.51 -100.93  -91.71  -82.12  -72.07  -61.96  -52.38  -43.34  -35.08  -28.78  -23.32  -18.11  -13.02   -8.31   -4.37
0  3   -93.84  -91.71  -86.86  -79.93  -71.20  -61.63  -52.25  -43.29  -35.06  -28.77  -23.32  -18.11  -13.02   -8.31   -4.37
0  4   -82.85  -82.12  -79.93  -75.82  -69.26  -60.83  -51.92  -43.16  -35.00  -28.74  -23.30  -18.10  -13.02   -8.31   -4.37
0  5   -72.33  -72.07  -71.20  -69.26  -65.32  -58.94  -51.11  -42.81  -34.86  -28.67  -23.26  -18.08  -13.01   -8.30   -4.37
0  6   -62.05  -61.96  -61.63  -60.83  -58.94  -55.08  -49.17  -41.94  -34.47  -28.47  -23.15  -18.03  -12.98   -8.29   -4.37
0  7   -52.41  -52.38  -52.25  -51.92  -51.11  -49.17  -45.50  -40.02  -33.55  -27.98  -22.89  -17.89  -12.91   -8.26   -4.36
0  8   -43.35  -43.34  -43.29  -43.16  -42.81  -41.94  -40.02  -36.56  -31.67  -26.91  -22.29  -17.57  -12.76   -8.19   -4.33
0  9   -35.09  -35.08  -35.06  -35.00  -34.86  -34.47  -33.55  -31.67  -28.52  -24.93  -21.10  -16.90  -12.42   -8.04   -4.28
0 10   -28.78  -28.78  -28.77  -28.74  -28.67  -28.47  -27.98  -26.91  -24.93  -22.38  -19.41  -15.87  -11.87   -7.79   -4.18
0 11   -23.32  -23.32  -23.32  -23.30  -23.26  -23.15  -22.89  -22.29  -21.10  -19.41  -17.26  -14.48  -11.09   -7.42   -4.04
0 12   -18.11  -18.11  -18.11  -18.10  -18.08  -18.03  -17.89  -17.57  -16.90  -15.87  -14.48  -12.51   -9.89   -6.81   -3.79
0 13   -13.02  -13.02  -13.02  -13.02  -13.01  -12.98  -12.91  -12.76  -12.42  -11.87  -11.09   -9.89   -8.13   -5.84   -3.38
0 14    -8.31   -8.31   -8.31   -8.31   -8.30   -8.29   -8.26   -8.19   -8.04   -7.79   -7.42   -6.81   -5.84   -4.43   -2.71
0 15    -4.37   -4.37   -4.37   -4.37   -4.37   -4.37   -4.36   -4.33   -4.28   -4.18   -4.04   -3.79   -3.38   -2.71   -1.80
0 16    -1.82   -1.82   -1.82   -1.82   -1.82   -1.82   -1.81   -1.81   -1.79   -1.76   -1.72   -1.64   -1.50   -1.26    -.90
0 17     -.59    -.59    -.59    -.59    -.59    -.59    -.58    -.58    -.58    -.57    -.56    -.54    -.50    -.44    -.33
0 18     -.17    -.17    -.17    -.17    -.17    -.17    -.17    -.17    -.17    -.17    -.16    -.16    -.15    -.13    -.11
0 19     -.05    -.05    -.05    -.05    -.05    -.05    -.05    -.05    -.05    -.05    -.05    -.05    -.04    -.04    -.03
0 20     -.01    -.01    -.01    -.01    -.01    -.01    -.01    -.01    -.01    -.01    -.01    -.01    -.01    -.01    -.01
0 21     -.00    -.00    -.00    -.00    -.00    -.00    -.00    -.00    -.00    -.00    -.00    -.00    -.00    -.00    -.00
0 22      .00     .00     .00     .00     .00     .00     .00     .00     .00     .00     .00     .00     .00     .00     .00
0 23      .00     .00     .00     .00     .00     .00     .00     .00     .00     .00     .00     .00     .00     .00     .00
0 24      .00     .00     .00     .00     .00     .00     .00     .00     .00     .00     .00     .00     .00     .00     .00
0 25      .00     .00     .00     .00     .00     .00     .00     .00     .00     .00     .00     .00     .00     .00     .00
1                      HEAD IN LAYER  3 AT END OF TIME STEP 18 IN STRESS PERIOD  1
           -----------------------------------------------------------------------

          16      17      18      19      20      21      22      23      24      25
 ........................................................................................
0  1    -1.82    -.59    -.17    -.05    -.01    -.00     .00     .00     .00     .00
0  2    -1.82    -.59    -.17    -.05    -.01    -.00     .00     .00     .00     .00
0  3    -1.82    -.59    -.17    -.05    -.01    -.00     .00     .00     .00     .00
0  4    -1.82    -.59    -.17    -.05    -.01    -.00     .00     .00     .00     .00
0  5    -1.82    -.59    -.17    -.05    -.01    -.00     .00     .00     .00     .00
0  6    -1.82    -.59    -.17    -.05    -.01    -.00     .00     .00     .00     .00
0  7    -1.81    -.58    -.17    -.05    -.01    -.00     .00     .00     .00     .00
0  8    -1.81    -.58    -.17    -.05    -.01    -.00     .00     .00     .00     .00
0  9    -1.79    -.58    -.17    -.05    -.01    -.00     .00     .00     .00     .00
0 10    -1.76    -.57    -.17    -.05    -.01    -.00     .00     .00     .00     .00
0 11    -1.72    -.56    -.16    -.05    -.01    -.00     .00     .00     .00     .00
0 12    -1.64    -.54    -.16    -.05    -.01    -.00     .00     .00     .00     .00
0 13    -1.50    -.50    -.15    -.04    -.01    -.00     .00     .00     .00     .00
0 14    -1.26    -.44    -.13    -.04    -.01    -.00     .00     .00     .00     .00
0 15     -.90    -.33    -.11    -.03    -.01    -.00     .00     .00     .00     .00
0 16     -.50    -.20    -.07    -.02    -.01    -.00     .00     .00     .00     .00
0 17     -.20    -.09    -.03    -.01    -.00    -.00     .00     .00     .00     .00
0 18     -.07    -.03    -.01    -.00    -.00     .00     .00     .00     .00     .00
0 19     -.02    -.01    -.00    -.00     .00     .00     .00     .00     .00     .00
0 20     -.01    -.00    -.00     .00     .00     .00     .00     .00     .00     .00
0 21     -.00    -.00     .00     .00     .00     .00     .00     .00     .00     .00
0 22      .00     .00     .00     .00     .00     .00     .00     .00     .00     .00
0 23      .00     .00     .00     .00     .00     .00     .00     .00     .00     .00
0 24      .00     .00     .00     .00     .00     .00     .00     .00     .00     .00
0 25      .00     .00     .00     .00     .00     .00     .00     .00     .00     .00
0


                              VOLUMETRIC BUDGET FOR ENTIRE MODEL AT END OF TIME STEP 18 IN STRESS PERIOD  1
                              -----------------------------------------------------------------------------
0                   CUMULATIVE VOLUMES      L**3                                     RATES FOR THIS TIME STEP      L**3/T
                    ------------------                                               ------------------------

                          IN:                                                                    IN:
                          ---                                                                    ---
                            STORAGE =    19118.                                                    STORAGE =    1.5348    
                      CONSTANT HEAD =    212.33                                              CONSTANT HEAD =    .35877E-01
                              WELLS =    .00000                                                      WELLS =    .00000    
0                          TOTAL IN =    19330.                                                   TOTAL IN =    1.5707    
0                        OUT:                                                                   OUT:
                         ----                                                                   ----
                            STORAGE =    .00000                                                    STORAGE =    .00000    
                      CONSTANT HEAD =    .00000                                              CONSTANT HEAD =    .00000    
                              WELLS =    19335.                                                      WELLS =    1.5707    
0                         TOTAL OUT =    19335.                                                  TOTAL OUT =    1.5707    
0                          IN - OUT =   -5.2500                                                   IN - OUT =   -.98825E-04
0               PERCENT DISCREPANCY =                -.03                              PERCENT DISCREPANCY =                -.01



0


          TIME SUMMARY AT END OF TIME STEP 18 IN STRESS PERIOD  1
                               SECONDS        MINUTES         HOURS          DAYS           YEARS
                           ---------------------------------------------------------------------------
      TIME STEP LENGTH         3611.12        60.1854        1.00309        .417954E-01    .114430E-03
    STRESS PERIOD TIME         12309.5        205.158        3.41930        .142471        .390064E-03
 TOTAL SIMULATION TIME         12309.5        205.158        3.41930        .142471        .390064E-03
1
    20 ITERATIONS FOR TIME STEP  19 IN STRESS PERIOD  1
0MAXIMUM HEAD CHANGE FOR EACH ITERATION:
0 HEAD CHANGE LAYER,ROW,COL HEAD CHANGE LAYER,ROW,COL HEAD CHANGE LAYER,ROW,COL HEAD CHANGE LAYER,ROW,COL HEAD CHANGE LAYER,ROW,COL
 ------------------------------------------------------------------------------------------------------------------------------------
   -.9909     (  2,  6,  6)  -.6063     (  2,  2,  3)  -.6003     (  2,  1,  1)  -.4831     (  3,  1,  5)  -1.162     (  3,  1,  1)
    .3771E-01 (  3, 13,  7)   .6591E-01 (  3, 12,  9)   .9866E-01 (  3,  9,  7)   .2944     (  3,  1,  1)  -.2866E-01 (  3, 11,  9)
    .5814E-02 (  3, 10,  1)   .5559E-02 (  3, 10,  2)   .1241E-01 (  3,  1,  1)   .1318E-01 (  3,  1,  2)   .4623E-01 (  3,  4,  1)
   -.1548E-02 (  3, 13,  9)  -.2822E-02 (  3, 12, 10)  -.4152E-02 (  3,  9,  8)  -.8465E-02 (  3,  1,  1)   .6823E-03 (  3, 12,  9)
0
0HEAD/DRAWDOWN PRINTOUT FLAG = 1     TOTAL BUDGET PRINTOUT FLAG = 1     CELL-BY-CELL FLOW TERM FLAG = 0
 REUSING PREVIOUS VALUES OF IOFLG
1                      HEAD IN LAYER  3 AT END OF TIME STEP 19 IN STRESS PERIOD  1
           -----------------------------------------------------------------------

           1       2       3       4       5       6       7       8       9      10      11      12      13      14      15
 ................................................................................................................................
0  1  -128.52 -108.89  -95.23  -84.23  -73.71  -63.43  -53.79  -44.73  -36.45  -30.13  -24.65  -19.40  -14.24   -9.39   -5.25
0  2  -108.89 -102.31  -93.09  -83.50  -73.45  -63.34  -53.76  -44.71  -36.45  -30.13  -24.65  -19.40  -14.23   -9.39   -5.24
0  3   -95.23  -93.09  -88.24  -81.31  -72.58  -63.01  -53.63  -44.66  -36.42  -30.12  -24.64  -19.39  -14.23   -9.39   -5.24
0  4   -84.23  -83.50  -81.31  -77.20  -70.64  -62.21  -53.30  -44.53  -36.37  -30.09  -24.62  -19.38  -14.23   -9.39   -5.24
0  5   -73.71  -73.45  -72.58  -70.64  -66.70  -60.32  -52.49  -44.19  -36.22  -30.01  -24.58  -19.36  -14.22   -9.39   -5.24
0  6   -63.43  -63.34  -63.01  -62.21  -60.32  -56.46  -50.55  -43.31  -35.83  -29.81  -24.48  -19.31  -14.19   -9.38   -5.24
0  7   -53.79  -53.76  -53.63  -53.30  -52.49  -50.55  -46.87  -41.39  -34.91  -29.32  -24.21  -19.17  -14.12   -9.35   -5.23
0  8   -44.73  -44.71  -44.66  -44.53  -44.19  -43.31  -41.39  -37.93  -33.03  -28.25  -23.61  -18.84  -13.96   -9.27   -5.20
0  9   -36.45  -36.45  -36.42  -36.37  -36.22  -35.83  -34.91  -33.03  -29.86  -26.26  -22.41  -18.17  -13.62   -9.12   -5.14
0 10   -30.13  -30.13  -30.12  -30.09  -30.01  -29.81  -29.32  -28.25  -26.26  -23.69  -20.70  -17.13  -13.06   -8.86   -5.04
0 11   -24.65  -24.65  -24.64  -24.62  -24.58  -24.48  -24.21  -23.61  -22.41  -20.70  -18.54  -15.72  -12.26   -8.47   -4.88
0 12   -19.40  -19.40  -19.39  -19.38  -19.36  -19.31  -19.17  -18.84  -18.17  -17.13  -15.72  -13.71  -11.03   -7.83   -4.62
0 13   -14.24  -14.23  -14.23  -14.23  -14.22  -14.19  -14.12  -13.96  -13.62  -13.06  -12.26  -11.03   -9.21   -6.81   -4.16
0 14    -9.39   -9.39   -9.39   -9.39   -9.39   -9.38   -9.35   -9.27   -9.12   -8.86   -8.47   -7.83   -6.81   -5.30   -3.43
0 15    -5.25   -5.25   -5.24   -5.24   -5.24   -5.24   -5.23   -5.20   -5.14   -5.04   -4.88   -4.62   -4.16   -3.43   -2.38
0 16    -2.40   -2.40   -2.40   -2.40   -2.40   -2.39   -2.39   -2.38   -2.36   -2.33   -2.28   -2.19   -2.02   -1.74   -1.30
0 17     -.88    -.88    -.88    -.88    -.88    -.88    -.88    -.88    -.87    -.86    -.85    -.82    -.78    -.69    -.55
0 18     -.30    -.30    -.30    -.30    -.30    -.30    -.30    -.30    -.30    -.29    -.29    -.28    -.27    -.24    -.20
0 19     -.10    -.10    -.10    -.10    -.10    -.10    -.10    -.10    -.10    -.10    -.10    -.09    -.09    -.08    -.07
0 20     -.03    -.03    -.03    -.03    -.03    -.03    -.03    -.03    -.03    -.03    -.03    -.03    -.03    -.03    -.02
0 21     -.01    -.01    -.01    -.01    -.01    -.01    -.01    -.01    -.01    -.01    -.01    -.01    -.01    -.01    -.01
0 22     -.00    -.00    -.00    -.00    -.00    -.00    -.00    -.00    -.00    -.00    -.00    -.00    -.00    -.00    -.00
0 23      .00     .00     .00     .00     .00     .00     .00     .00     .00     .00     .00     .00     .00     .00     .00
0 24      .00     .00     .00     .00     .00     .00     .00     .00     .00     .00     .00     .00     .00     .00     .00
0 25      .00     .00     .00     .00     .00     .00     .00     .00     .00     .00     .00     .00     .00     .00     .00
1                      HEAD IN LAYER  3 AT END OF TIME STEP 19 IN STRESS PERIOD  1
           -----------------------------------------------------------------------

          16      17      18      19      20      21      22      23      24      25
 ........................................................................................
0  1    -2.40    -.88    -.30    -.10    -.03    -.01    -.00     .00     .00     .00
0  2    -2.40    -.88    -.30    -.10    -.03    -.01    -.00     .00     .00     .00
0  3    -2.40    -.88    -.30    -.10    -.03    -.01    -.00     .00     .00     .00
0  4    -2.40    -.88    -.30    -.10    -.03    -.01    -.00     .00     .00     .00
0  5    -2.40    -.88    -.30    -.10    -.03    -.01    -.00     .00     .00     .00
0  6    -2.39    -.88    -.30    -.10    -.03    -.01    -.00     .00     .00     .00
0  7    -2.39    -.88    -.30    -.10    -.03    -.01    -.00     .00     .00     .00
0  8    -2.38    -.88    -.30    -.10    -.03    -.01    -.00     .00     .00     .00
0  9    -2.36    -.87    -.30    -.10    -.03    -.01    -.00     .00     .00     .00
0 10    -2.33    -.86    -.29    -.10    -.03    -.01    -.00     .00     .00     .00
0 11    -2.28    -.85    -.29    -.10    -.03    -.01    -.00     .00     .00     .00
0 12    -2.19    -.82    -.28    -.09    -.03    -.01    -.00     .00     .00     .00
0 13    -2.02    -.78    -.27    -.09    -.03    -.01    -.00     .00     .00     .00
0 14    -1.74    -.69    -.24    -.08    -.03    -.01    -.00     .00     .00     .00
0 15    -1.30    -.55    -.20    -.07    -.02    -.01    -.00     .00     .00     .00
0 16     -.77    -.35    -.14    -.05    -.02    -.01    -.00     .00     .00     .00
0 17     -.35    -.18    -.07    -.03    -.01    -.00    -.00     .00     .00     .00
0 18     -.14    -.07    -.03    -.01    -.01    -.00     .00     .00     .00     .00
0 19     -.05    -.03    -.01    -.01    -.00    -.00     .00     .00     .00     .00
0 20     -.02    -.01    -.01    -.00    -.00     .00     .00     .00     .00     .00
0 21     -.01    -.00    -.00    -.00     .00     .00     .00     .00     .00     .00
0 22     -.00    -.00     .00     .00     .00     .00     .00     .00     .00     .00
0 23      .00     .00     .00     .00     .00     .00     .00     .00     .00     .00
0 24      .00     .00     .00     .00     .00     .00     .00     .00     .00     .00
0 25      .00     .00     .00     .00     .00     .00     .00     .00     .00     .00
0


                              VOLUMETRIC BUDGET FOR ENTIRE MODEL AT END OF TIME STEP 19 IN STRESS PERIOD  1
                              -----------------------------------------------------------------------------
0                   CUMULATIVE VOLUMES      L**3                                     RATES FOR THIS TIME STEP      L**3/T
                    ------------------                                               ------------------------

                          IN:                                                                    IN:
                          ---                                                                    ---
                            STORAGE =    26821.                                                    STORAGE =    1.5087    
                      CONSTANT HEAD =    528.52                                              CONSTANT HEAD =    .61922E-01
                              WELLS =    .00000                                                      WELLS =    .00000    
0                          TOTAL IN =    27350.                                                   TOTAL IN =    1.5706    
0                        OUT:                                                                   OUT:
                         ----                                                                   ----
                            STORAGE =    .00000                                                    STORAGE =    .00000    
                      CONSTANT HEAD =    .00000                                              CONSTANT HEAD =    .00000    
                              WELLS =    27356.                                                      WELLS =    1.5707    
0                         TOTAL OUT =    27356.                                                  TOTAL OUT =    1.5707    
0                          IN - OUT =   -6.0410                                                   IN - OUT =   -.15509E-03
0               PERCENT DISCREPANCY =                -.02                              PERCENT DISCREPANCY =                -.01



0


          TIME SUMMARY AT END OF TIME STEP 19 IN STRESS PERIOD  1
                               SECONDS        MINUTES         HOURS          DAYS           YEARS
                           ---------------------------------------------------------------------------
      TIME STEP LENGTH         5106.13        85.1021        1.41837        .590987E-01    .161803E-03
    STRESS PERIOD TIME         17415.6        290.260        4.83767        .201570        .551868E-03
 TOTAL SIMULATION TIME         17415.6        290.260        4.83767        .201570        .551868E-03
1
    20 ITERATIONS FOR TIME STEP  20 IN STRESS PERIOD  1
0MAXIMUM HEAD CHANGE FOR EACH ITERATION:
0 HEAD CHANGE LAYER,ROW,COL HEAD CHANGE LAYER,ROW,COL HEAD CHANGE LAYER,ROW,COL HEAD CHANGE LAYER,ROW,COL HEAD CHANGE LAYER,ROW,COL
 ------------------------------------------------------------------------------------------------------------------------------------
   -1.243     (  2,  6,  7)  -.7338     (  2,  3,  3)  -.8981     (  2,  1,  1)  -.3666     (  3,  1,  6)  -.9467     (  3,  1,  1)
    .3073E-01 (  3, 14, 11)   .5171E-01 (  3, 12,  9)   .7777E-01 (  3, 10,  7)   .2308     (  3,  1,  1)  -.2177E-01 (  3, 11,  9)
    .5111E-02 (  3, 10,  1)   .5271E-02 (  3, 10,  2)   .1181E-01 (  3,  7,  6)   .1303E-01 (  3,  1,  3)   .4945E-01 (  3,  4,  1)
   -.1635E-02 (  3, 14, 12)  -.2951E-02 (  3, 12, 10)  -.4340E-02 (  3, 10,  8)  -.8846E-02 (  3,  1,  1)   .6951E-03 (  3, 12, 10)
0
0HEAD/DRAWDOWN PRINTOUT FLAG = 1     TOTAL BUDGET PRINTOUT FLAG = 1     CELL-BY-CELL FLOW TERM FLAG = 0
 REUSING PREVIOUS VALUES OF IOFLG
1                      HEAD IN LAYER  3 AT END OF TIME STEP 20 IN STRESS PERIOD  1
           -----------------------------------------------------------------------

           1       2       3       4       5       6       7       8       9      10      11      12      13      14      15
 ................................................................................................................................
0  1  -129.60 -109.96  -96.30  -85.31  -74.79  -64.51  -54.86  -45.80  -37.51  -31.18  -25.68  -20.40  -15.18  -10.26   -5.96
0  2  -109.96 -103.38  -94.17  -84.57  -74.52  -64.41  -54.83  -45.78  -37.51  -31.18  -25.67  -20.40  -15.18  -10.26   -5.96
0  3   -96.30  -94.17  -89.32  -82.39  -73.66  -64.08  -54.70  -45.73  -37.48  -31.16  -25.67  -20.39  -15.18  -10.26   -5.96
0  4   -85.31  -84.57  -82.39  -78.28  -71.71  -63.28  -54.38  -45.60  -37.43  -31.14  -25.65  -20.38  -15.18  -10.25   -5.96
0  5   -74.79  -74.52  -73.66  -71.71  -67.78  -61.39  -53.56  -45.25  -37.28  -31.06  -25.61  -20.36  -15.17  -10.25   -5.96
0  6   -64.51  -64.41  -64.08  -63.28  -61.39  -57.54  -51.62  -44.38  -36.89  -30.86  -25.51  -20.31  -15.14  -10.24   -5.96
0  7   -54.86  -54.83  -54.70  -54.38  -53.56  -51.62  -47.94  -42.46  -35.97  -30.37  -25.24  -20.17  -15.07  -10.21   -5.94
0  8   -45.80  -45.78  -45.73  -45.60  -45.25  -44.38  -42.46  -38.99  -34.09  -29.30  -24.64  -19.84  -14.91  -10.13   -5.92
0  9   -37.51  -37.51  -37.48  -37.43  -37.28  -36.89  -35.97  -34.09  -30.91  -27.30  -23.43  -19.16  -14.56   -9.97   -5.85
0 10   -31.18  -31.18  -31.16  -31.14  -31.06  -30.86  -30.37  -29.30  -27.30  -24.72  -21.71  -18.11  -13.99   -9.71   -5.75
0 11   -25.68  -25.67  -25.67  -25.65  -25.61  -25.51  -25.24  -24.64  -23.43  -21.71  -19.53  -16.68  -13.18   -9.31   -5.58
0 12   -20.40  -20.40  -20.39  -20.38  -20.36  -20.31  -20.17  -19.84  -19.16  -18.11  -16.68  -14.65  -11.92   -8.65   -5.30
0 13   -15.18  -15.18  -15.18  -15.18  -15.17  -15.14  -15.07  -14.91  -14.56  -13.99  -13.18  -11.92  -10.07   -7.60   -4.82
0 14   -10.26  -10.26  -10.26  -10.25  -10.25  -10.24  -10.21  -10.13   -9.97   -9.71   -9.31   -8.65   -7.60   -6.02   -4.03
0 15    -5.96   -5.96   -5.96   -5.96   -5.96   -5.96   -5.94   -5.92   -5.85   -5.75   -5.58   -5.30   -4.82   -4.04   -2.90
0 16    -2.91   -2.91   -2.91   -2.91   -2.91   -2.91   -2.91   -2.90   -2.88   -2.84   -2.78   -2.68   -2.50   -2.19   -1.68
0 17    -1.18   -1.18   -1.18   -1.18   -1.18   -1.18   -1.18   -1.18   -1.17   -1.16   -1.14   -1.11   -1.06    -.95    -.77
0 18     -.45    -.45    -.45    -.45    -.45    -.45    -.45    -.45    -.45    -.44    -.44    -.43    -.41    -.38    -.32
0 19     -.17    -.17    -.17    -.17    -.17    -.17    -.17    -.17    -.17    -.17    -.16    -.16    -.16    -.15    -.13
0 20     -.06    -.06    -.06    -.06    -.06    -.06    -.06    -.06    -.06    -.06    -.06    -.06    -.06    -.05    -.05
0 21     -.02    -.02    -.02    -.02    -.02    -.02    -.02    -.02    -.02    -.02    -.02    -.02    -.02    -.02    -.02
0 22     -.01    -.01    -.01    -.01    -.01    -.01    -.01    -.01    -.01    -.01    -.01    -.01    -.01    -.01    -.01
0 23     -.00    -.00    -.00    -.00    -.00    -.00    -.00    -.00    -.00    -.00    -.00    -.00    -.00    -.00    -.00
0 24     -.00    -.00    -.00    -.00    -.00    -.00    -.00    -.00    -.00    -.00    -.00    -.00     .00     .00     .00
0 25      .00     .00     .00     .00     .00     .00     .00     .00     .00     .00     .00     .00     .00     .00     .00
1                      HEAD IN LAYER  3 AT END OF TIME STEP 20 IN STRESS PERIOD  1
           -----------------------------------------------------------------------

          16      17      18      19      20      21      22      23      24      25
 ........................................................................................
0  1    -2.91   -1.18    -.45    -.17    -.06    -.02    -.01    -.00    -.00     .00
0  2    -2.91   -1.18    -.45    -.17    -.06    -.02    -.01    -.00    -.00     .00
0  3    -2.91   -1.18    -.45    -.17    -.06    -.02    -.01    -.00    -.00     .00
0  4    -2.91   -1.18    -.45    -.17    -.06    -.02    -.01    -.00    -.00     .00
0  5    -2.91   -1.18    -.45    -.17    -.06    -.02    -.01    -.00    -.00     .00
0  6    -2.91   -1.18    -.45    -.17    -.06    -.02    -.01    -.00    -.00     .00
0  7    -2.91   -1.18    -.45    -.17    -.06    -.02    -.01    -.00    -.00     .00
0  8    -2.90   -1.18    -.45    -.17    -.06    -.02    -.01    -.00    -.00     .00
0  9    -2.88   -1.17    -.45    -.17    -.06    -.02    -.01    -.00    -.00     .00
0 10    -2.84   -1.16    -.44    -.17    -.06    -.02    -.01    -.00    -.00     .00
0 11    -2.78   -1.14    -.44    -.16    -.06    -.02    -.01    -.00    -.00     .00
0 12    -2.68   -1.11    -.43    -.16    -.06    -.02    -.01    -.00    -.00     .00
0 13    -2.50   -1.06    -.41    -.16    -.06    -.02    -.01    -.00     .00     .00
0 14    -2.19    -.95    -.38    -.15    -.05    -.02    -.01    -.00     .00     .00
0 15    -1.68    -.77    -.32    -.13    -.05    -.02    -.01    -.00     .00     .00
0 16    -1.06    -.53    -.23    -.09    -.04    -.01    -.01    -.00     .00     .00
0 17     -.53    -.29    -.13    -.06    -.02    -.01    -.00    -.00     .00     .00
0 18     -.23    -.13    -.07    -.03    -.01    -.01    -.00     .00     .00     .00
0 19     -.09    -.06    -.03    -.02    -.01    -.00    -.00     .00     .00     .00
0 20     -.04    -.02    -.01    -.01    -.00    -.00     .00     .00     .00     .00
0 21     -.01    -.01    -.01    -.00    -.00     .00     .00     .00     .00     .00
0 22     -.01    -.00    -.00    -.00     .00     .00     .00     .00     .00     .00
0 23     -.00    -.00     .00     .00     .00     .00     .00     .00     .00     .00
0 24      .00     .00     .00     .00     .00     .00     .00     .00     .00     .00
0 25      .00     .00     .00     .00     .00     .00     .00     .00     .00     .00
0


                              VOLUMETRIC BUDGET FOR ENTIRE MODEL AT END OF TIME STEP 20 IN STRESS PERIOD  1
                              -----------------------------------------------------------------------------
0                   CUMULATIVE VOLUMES      L**3                                     RATES FOR THIS TIME STEP      L**3/T
                    ------------------                                               ------------------------

                          IN:                                                                    IN:
                          ---                                                                    ---
                            STORAGE =    37419.                                                    STORAGE =    1.4678    
                      CONSTANT HEAD =    1270.5                                              CONSTANT HEAD =    .10276    
                              WELLS =    .00000                                                      WELLS =    .00000    
0                          TOTAL IN =    38689.                                                   TOTAL IN =    1.5706    
0                        OUT:                                                                   OUT:
                         ----                                                                   ----
                            STORAGE =    .00000                                                    STORAGE =    .00000    
                      CONSTANT HEAD =    .00000                                              CONSTANT HEAD =    .00000    
                              WELLS =    38697.                                                      WELLS =    1.5707    
0                         TOTAL OUT =    38697.                                                  TOTAL OUT =    1.5707    
0                          IN - OUT =   -7.4727                                                   IN - OUT =   -.19789E-03
0               PERCENT DISCREPANCY =                -.02                              PERCENT DISCREPANCY =                -.01



0


          TIME SUMMARY AT END OF TIME STEP 20 IN STRESS PERIOD  1
                               SECONDS        MINUTES         HOURS          DAYS           YEARS
                           ---------------------------------------------------------------------------
      TIME STEP LENGTH         7220.07        120.334        2.00557        .835656E-01    .228790E-03
    STRESS PERIOD TIME         24635.7        410.595        6.84325        .285135        .780658E-03
 TOTAL SIMULATION TIME         24635.7        410.595        6.84325        .285135        .780658E-03
1
    20 ITERATIONS FOR TIME STEP  21 IN STRESS PERIOD  1
0MAXIMUM HEAD CHANGE FOR EACH ITERATION:
0 HEAD CHANGE LAYER,ROW,COL HEAD CHANGE LAYER,ROW,COL HEAD CHANGE LAYER,ROW,COL HEAD CHANGE LAYER,ROW,COL HEAD CHANGE LAYER,ROW,COL
 ------------------------------------------------------------------------------------------------------------------------------------
   -1.539     (  2,  7,  7)  -.8642     (  2,  3,  4)  -1.249     (  2,  1,  1)  -.2812     (  3,  1,  6)  -.7819     (  3,  1,  1)
    .2537E-01 (  3, 14, 12)   .4180E-01 (  3, 13, 10)   .6195E-01 (  3, 10,  7)   .1797     (  3,  1,  1)  -.1620E-01 (  3, 11, 10)
    .4390E-02 (  3, 10,  1)   .4811E-02 (  3, 10,  2)   .1086E-01 (  3,  7,  6)   .1231E-01 (  3,  1,  3)   .5008E-01 (  3,  4,  1)
   -.1683E-02 (  3, 14, 12)  -.2901E-02 (  3, 12, 11)  -.4287E-02 (  3, 10,  8)  -.8629E-02 (  3,  1,  1)  -.7406E-03 (  3,  1,  1)
0
0HEAD/DRAWDOWN PRINTOUT FLAG = 1     TOTAL BUDGET PRINTOUT FLAG = 1     CELL-BY-CELL FLOW TERM FLAG = 0
 REUSING PREVIOUS VALUES OF IOFLG
1                      HEAD IN LAYER  3 AT END OF TIME STEP 21 IN STRESS PERIOD  1
           -----------------------------------------------------------------------

           1       2       3       4       5       6       7       8       9      10      11      12      13      14      15
 ................................................................................................................................
0  1  -130.46 -110.82  -97.16  -86.17  -75.64  -65.37  -55.72  -46.65  -38.36  -32.01  -26.49  -21.19  -15.93  -10.94   -6.54
0  2  -110.82 -104.24  -95.03  -85.43  -75.38  -65.27  -55.68  -46.63  -38.35  -32.01  -26.49  -21.19  -15.93  -10.94   -6.54
0  3   -97.16  -95.03  -90.18  -83.24  -74.52  -64.94  -55.56  -46.58  -38.33  -32.00  -26.49  -21.18  -15.93  -10.94   -6.54
0  4   -86.17  -85.43  -83.24  -79.14  -72.57  -64.14  -55.23  -46.45  -38.27  -31.97  -26.47  -21.17  -15.93  -10.94   -6.54
0  5   -75.64  -75.38  -74.52  -72.57  -68.64  -62.25  -54.41  -46.11  -38.13  -31.89  -26.43  -21.15  -15.92  -10.93   -6.53
0  6   -65.37  -65.27  -64.94  -64.14  -62.25  -58.39  -52.48  -45.23  -37.74  -31.69  -26.32  -21.10  -15.89  -10.92   -6.53
0  7   -55.72  -55.68  -55.56  -55.23  -54.41  -52.48  -48.80  -43.31  -36.82  -31.20  -26.05  -20.95  -15.82  -10.89   -6.52
0  8   -46.65  -46.63  -46.58  -46.45  -46.11  -45.23  -43.31  -39.84  -34.93  -30.13  -25.45  -20.63  -15.65  -10.81   -6.49
0  9   -38.36  -38.35  -38.33  -38.27  -38.13  -37.74  -36.82  -34.93  -31.75  -28.12  -24.24  -19.94  -15.30  -10.65   -6.42
0 10   -32.01  -32.01  -32.00  -31.97  -31.89  -31.69  -31.20  -30.13  -28.12  -25.53  -22.51  -18.88  -14.73  -10.38   -6.31
0 11   -26.49  -26.49  -26.49  -26.47  -26.43  -26.32  -26.05  -25.45  -24.24  -22.51  -20.31  -17.45  -13.90   -9.97   -6.14
0 12   -21.19  -21.19  -21.18  -21.17  -21.15  -21.10  -20.95  -20.63  -19.94  -18.88  -17.45  -15.40  -12.63   -9.30   -5.85
0 13   -15.93  -15.93  -15.93  -15.93  -15.92  -15.89  -15.82  -15.65  -15.30  -14.73  -13.91  -12.63  -10.75   -8.22   -5.35
0 14   -10.94  -10.94  -10.94  -10.94  -10.93  -10.92  -10.89  -10.81  -10.65  -10.38   -9.97   -9.30   -8.22   -6.60   -4.53
0 15    -6.54   -6.54   -6.54   -6.54   -6.53   -6.53   -6.52   -6.49   -6.42   -6.31   -6.14   -5.85   -5.35   -4.53   -3.33
0 16    -3.34   -3.34   -3.34   -3.34   -3.34   -3.34   -3.34   -3.32   -3.30   -3.26   -3.20   -3.09   -2.90   -2.56   -2.01
0 17    -1.46   -1.46   -1.46   -1.46   -1.46   -1.45   -1.45   -1.45   -1.44   -1.43   -1.41   -1.38   -1.31   -1.20    -.99
0 18     -.60    -.60    -.60    -.60    -.60    -.60    -.60    -.60    -.60    -.59    -.59    -.58    -.55    -.51    -.44
0 19     -.25    -.25    -.25    -.25    -.25    -.25    -.25    -.25    -.25    -.24    -.24    -.24    -.23    -.22    -.19
0 20     -.10    -.10    -.10    -.10    -.10    -.10    -.10    -.10    -.10    -.10    -.10    -.10    -.10    -.09    -.08
0 21     -.04    -.04    -.04    -.04    -.04    -.04    -.04    -.04    -.04    -.04    -.04    -.04    -.04    -.04    -.03
0 22     -.02    -.02    -.02    -.02    -.02    -.02    -.02    -.02    -.02    -.02    -.02    -.02    -.02    -.01    -.01
0 23     -.01    -.01    -.01    -.01    -.01    -.01    -.01    -.01    -.01    -.01    -.01    -.01    -.01    -.01    -.01
0 24     -.00    -.00    -.00    -.00    -.00    -.00    -.00    -.00    -.00    -.00    -.00    -.00    -.00    -.00    -.00
0 25     -.00    -.00    -.00    -.00    -.00    -.00    -.00    -.00    -.00    -.00    -.00    -.00    -.00    -.00    -.00
1                      HEAD IN LAYER  3 AT END OF TIME STEP 21 IN STRESS PERIOD  1
           -----------------------------------------------------------------------

          16      17      18      19      20      21      22      23      24      25
 ........................................................................................
0  1    -3.34   -1.46    -.60    -.25    -.10    -.04    -.02    -.01    -.00    -.00
0  2    -3.34   -1.46    -.60    -.25    -.10    -.04    -.02    -.01    -.00    -.00
0  3    -3.34   -1.46    -.60    -.25    -.10    -.04    -.02    -.01    -.00    -.00
0  4    -3.34   -1.46    -.60    -.25    -.10    -.04    -.02    -.01    -.00    -.00
0  5    -3.34   -1.46    -.60    -.25    -.10    -.04    -.02    -.01    -.00    -.00
0  6    -3.34   -1.45    -.60    -.25    -.10    -.04    -.02    -.01    -.00    -.00
0  7    -3.33   -1.45    -.60    -.25    -.10    -.04    -.02    -.01    -.00    -.00
0  8    -3.32   -1.45    -.60    -.25    -.10    -.04    -.02    -.01    -.00    -.00
0  9    -3.30   -1.44    -.60    -.25    -.10    -.04    -.02    -.01    -.00    -.00
0 10    -3.26   -1.43    -.59    -.24    -.10    -.04    -.02    -.01    -.00    -.00
0 11    -3.20   -1.41    -.59    -.24    -.10    -.04    -.02    -.01    -.00    -.00
0 12    -3.09   -1.38    -.57    -.24    -.10    -.04    -.02    -.01    -.00    -.00
0 13    -2.90   -1.31    -.55    -.23    -.10    -.04    -.02    -.01    -.00    -.00
0 14    -2.56   -1.20    -.51    -.22    -.09    -.04    -.01    -.01    -.00    -.00
0 15    -2.01    -.99    -.44    -.19    -.08    -.03    -.01    -.01    -.00    -.00
0 16    -1.32    -.70    -.33    -.15    -.07    -.03    -.01    -.00    -.00     .00
0 17     -.70    -.41    -.21    -.10    -.04    -.02    -.01    -.00    -.00     .00
0 18     -.33    -.21    -.11    -.06    -.03    -.01    -.01    -.00    -.00     .00
0 19     -.15    -.10    -.06    -.03    -.02    -.01    -.00    -.00     .00     .00
0 20     -.07    -.04    -.03    -.02    -.01    -.00    -.00     .00     .00     .00
0 21     -.03    -.02    -.01    -.01    -.00    -.00    -.00     .00     .00     .00
0 22     -.01    -.01    -.01    -.00    -.00    -.00     .00     .00     .00     .00
0 23     -.00    -.00    -.00    -.00     .00     .00     .00     .00     .00     .00
0 24     -.00    -.00    -.00     .00     .00     .00     .00     .00     .00     .00
0 25      .00     .00     .00     .00     .00     .00     .00     .00     .00     .00
0


                              VOLUMETRIC BUDGET FOR ENTIRE MODEL AT END OF TIME STEP 21 IN STRESS PERIOD  1
                              -----------------------------------------------------------------------------
0                   CUMULATIVE VOLUMES      L**3                                     RATES FOR THIS TIME STEP      L**3/T
                    ------------------                                               ------------------------

                          IN:                                                                    IN:
                          ---                                                                    ---
                            STORAGE =    51784.                                                    STORAGE =    1.4071    
                      CONSTANT HEAD =    2938.6                                              CONSTANT HEAD =    .16340    
                              WELLS =    .00000                                                      WELLS =    .00000    
0                          TOTAL IN =    54723.                                                   TOTAL IN =    1.5705    
0                        OUT:                                                                   OUT:
                         ----                                                                   ----
                            STORAGE =    .00000                                                    STORAGE =    .00000    
                      CONSTANT HEAD =    .00000                                              CONSTANT HEAD =    .00000    
                              WELLS =    54733.                                                      WELLS =    1.5707    
0                         TOTAL OUT =    54733.                                                  TOTAL OUT =    1.5707    
0                          IN - OUT =   -9.7617                                                   IN - OUT =   -.22447E-03
0               PERCENT DISCREPANCY =                -.02                              PERCENT DISCREPANCY =                -.01



0


          TIME SUMMARY AT END OF TIME STEP 21 IN STRESS PERIOD  1
                               SECONDS        MINUTES         HOURS          DAYS           YEARS
                           ---------------------------------------------------------------------------
      TIME STEP LENGTH         10209.2        170.153        2.83588        .118162        .323509E-03
    STRESS PERIOD TIME         34844.9        580.748        9.67913        .403297        .110417E-02
 TOTAL SIMULATION TIME         34844.9        580.748        9.67913        .403297        .110417E-02
1
    20 ITERATIONS FOR TIME STEP  22 IN STRESS PERIOD  1
0MAXIMUM HEAD CHANGE FOR EACH ITERATION:
0 HEAD CHANGE LAYER,ROW,COL HEAD CHANGE LAYER,ROW,COL HEAD CHANGE LAYER,ROW,COL HEAD CHANGE LAYER,ROW,COL HEAD CHANGE LAYER,ROW,COL
 ------------------------------------------------------------------------------------------------------------------------------------
   -1.809     (  2,  7,  7)  -.9805     (  2,  4,  4)  -1.612     (  2,  1,  1)  -.2345     (  3,  1,  6)  -.7023     (  3,  1,  1)
    .2280E-01 (  3, 14, 13)   .3702E-01 (  3, 13, 11)   .5362E-01 (  3, 10,  8)   .1497     (  3,  1,  1)  -.1292E-01 (  3, 12, 10)
    .3990E-02 (  3, 10,  1)   .4603E-02 (  3, 10,  2)   .1050E-01 (  3,  8,  6)   .1213E-01 (  3,  1,  3)   .5232E-01 (  3,  4,  1)
   -.1760E-02 (  3, 14, 12)  -.2980E-02 (  3, 13, 11)  -.4358E-02 (  3, 10,  9)  -.8613E-02 (  3,  1,  1)  -.8505E-03 (  3,  1,  1)
0
0HEAD/DRAWDOWN PRINTOUT FLAG = 1     TOTAL BUDGET PRINTOUT FLAG = 1     CELL-BY-CELL FLOW TERM FLAG = 0
 REUSING PREVIOUS VALUES OF IOFLG
1                      HEAD IN LAYER  3 AT END OF TIME STEP 22 IN STRESS PERIOD  1
           -----------------------------------------------------------------------

           1       2       3       4       5       6       7       8       9      10      11      12      13      14      15
 ................................................................................................................................
0  1  -131.21 -111.58  -97.91  -86.92  -76.40  -66.12  -56.47  -47.40  -39.10  -32.74  -27.20  -21.87  -16.57  -11.51   -7.02
0  2  -111.58 -105.00  -95.78  -86.19  -76.14  -66.02  -56.44  -47.38  -39.09  -32.74  -27.20  -21.87  -16.57  -11.51   -7.02
0  3   -97.91  -95.78  -90.93  -84.00  -75.27  -65.69  -56.31  -47.33  -39.07  -32.72  -27.20  -21.87  -16.57  -11.51   -7.02
0  4   -86.92  -86.19  -84.00  -79.89  -73.32  -64.89  -55.98  -47.20  -39.01  -32.70  -27.18  -21.86  -16.57  -11.51   -7.02
0  5   -76.40  -76.14  -75.27  -73.32  -69.39  -63.01  -55.17  -46.85  -38.86  -32.62  -27.14  -21.84  -16.56  -11.51   -7.02
0  6   -66.12  -66.02  -65.69  -64.89  -63.01  -59.15  -53.23  -45.98  -38.47  -32.42  -27.03  -21.78  -16.53  -11.49   -7.01
0  7   -56.47  -56.44  -56.31  -55.98  -55.17  -53.23  -49.54  -44.05  -37.55  -31.93  -26.76  -21.64  -16.46  -11.46   -7.00
0  8   -47.40  -47.38  -47.33  -47.20  -46.85  -45.98  -44.05  -40.58  -35.66  -30.85  -26.15  -21.30  -16.29  -11.39   -6.97
0  9   -39.10  -39.09  -39.07  -39.01  -38.86  -38.47  -37.55  -35.66  -32.47  -28.83  -24.94  -20.61  -15.93  -11.22   -6.90
0 10   -32.74  -32.74  -32.72  -32.70  -32.62  -32.42  -31.93  -30.85  -28.83  -26.24  -23.20  -19.55  -15.36  -10.94   -6.79
0 11   -27.20  -27.20  -27.20  -27.18  -27.14  -27.03  -26.76  -26.15  -24.94  -23.20  -20.99  -18.10  -14.52  -10.53   -6.61
0 12   -21.87  -21.87  -21.87  -21.86  -21.84  -21.78  -21.64  -21.30  -20.61  -19.55  -18.10  -16.03  -13.23   -9.84   -6.31
0 13   -16.57  -16.57  -16.57  -16.57  -16.56  -16.53  -16.46  -16.29  -15.93  -15.36  -14.52  -13.23  -11.32   -8.74   -5.80
0 14   -11.51  -11.51  -11.51  -11.51  -11.51  -11.49  -11.46  -11.39  -11.22  -10.94  -10.53   -9.84   -8.74   -7.08   -4.94
0 15    -7.02   -7.02   -7.02   -7.02   -7.02   -7.01   -7.00   -6.97   -6.90   -6.79   -6.61   -6.31   -5.80   -4.94   -3.69
0 16    -3.70   -3.70   -3.70   -3.70   -3.70   -3.70   -3.69   -3.68   -3.66   -3.62   -3.55   -3.44   -3.24   -2.88   -2.30
0 17    -1.69   -1.69   -1.69   -1.69   -1.69   -1.69   -1.69   -1.68   -1.68   -1.66   -1.64   -1.60   -1.53   -1.41   -1.18
0 18     -.74    -.74    -.74    -.74    -.74    -.74    -.74    -.74    -.74    -.73    -.72    -.71    -.69    -.64    -.56
0 19     -.33    -.33    -.33    -.33    -.33    -.33    -.33    -.32    -.32    -.32    -.32    -.31    -.31    -.29    -.26
0 20     -.14    -.14    -.14    -.14    -.14    -.14    -.14    -.14    -.14    -.14    -.14    -.14    -.14    -.13    -.12
0 21     -.06    -.06    -.06    -.06    -.06    -.06    -.06    -.06    -.06    -.06    -.06    -.06    -.06    -.06    -.05
0 22     -.03    -.03    -.03    -.03    -.03    -.03    -.03    -.03    -.03    -.03    -.03    -.03    -.03    -.03    -.02
0 23     -.01    -.01    -.01    -.01    -.01    -.01    -.01    -.01    -.01    -.01    -.01    -.01    -.01    -.01    -.01
0 24     -.01    -.01    -.01    -.01    -.01    -.01    -.01    -.01    -.01    -.01    -.01    -.01    -.01    -.01    -.00
0 25     -.00    -.00    -.00    -.00    -.00    -.00    -.00    -.00    -.00    -.00    -.00    -.00    -.00    -.00    -.00
1                      HEAD IN LAYER  3 AT END OF TIME STEP 22 IN STRESS PERIOD  1
           -----------------------------------------------------------------------

          16      17      18      19      20      21      22      23      24      25
 ........................................................................................
0  1    -3.70   -1.69    -.74    -.33    -.14    -.06    -.03    -.01    -.01    -.00
0  2    -3.70   -1.69    -.74    -.33    -.14    -.06    -.03    -.01    -.01    -.00
0  3    -3.70   -1.69    -.74    -.33    -.14    -.06    -.03    -.01    -.01    -.00
0  4    -3.70   -1.69    -.74    -.33    -.14    -.06    -.03    -.01    -.01    -.00
0  5    -3.70   -1.69    -.74    -.33    -.14    -.06    -.03    -.01    -.01    -.00
0  6    -3.70   -1.69    -.74    -.33    -.14    -.06    -.03    -.01    -.01    -.00
0  7    -3.69   -1.69    -.74    -.33    -.14    -.06    -.03    -.01    -.01    -.00
0  8    -3.68   -1.68    -.74    -.32    -.14    -.06    -.03    -.01    -.01    -.00
0  9    -3.66   -1.68    -.74    -.32    -.14    -.06    -.03    -.01    -.01    -.00
0 10    -3.62   -1.66    -.73    -.32    -.14    -.06    -.03    -.01    -.01    -.00
0 11    -3.55   -1.64    -.72    -.32    -.14    -.06    -.03    -.01    -.01    -.00
0 12    -3.44   -1.60    -.71    -.31    -.14    -.06    -.03    -.01    -.01    -.00
0 13    -3.24   -1.53    -.69    -.31    -.14    -.06    -.03    -.01    -.01    -.00
0 14    -2.88   -1.41    -.64    -.29    -.13    -.06    -.03    -.01    -.01    -.00
0 15    -2.30   -1.18    -.56    -.26    -.12    -.05    -.02    -.01    -.00    -.00
0 16    -1.55    -.86    -.43    -.21    -.10    -.04    -.02    -.01    -.00    -.00
0 17     -.86    -.52    -.28    -.14    -.07    -.03    -.02    -.01    -.00    -.00
0 18     -.43    -.28    -.16    -.09    -.04    -.02    -.01    -.00    -.00    -.00
0 19     -.21    -.14    -.09    -.05    -.03    -.01    -.01    -.00    -.00     .00
0 20     -.10    -.07    -.04    -.03    -.01    -.01    -.00    -.00    -.00     .00
0 21     -.04    -.03    -.02    -.01    -.01    -.00    -.00    -.00     .00     .00
0 22     -.02    -.02    -.01    -.01    -.00    -.00    -.00     .00     .00     .00
0 23     -.01    -.01    -.00    -.00    -.00    -.00     .00     .00     .00     .00
0 24     -.00    -.00    -.00    -.00    -.00     .00     .00     .00     .00     .00
0 25     -.00    -.00    -.00     .00     .00     .00     .00     .00     .00     .00
0


                              VOLUMETRIC BUDGET FOR ENTIRE MODEL AT END OF TIME STEP 22 IN STRESS PERIOD  1
                              -----------------------------------------------------------------------------
0                   CUMULATIVE VOLUMES      L**3                                     RATES FOR THIS TIME STEP      L**3/T
                    ------------------                                               ------------------------

                          IN:                                                                    IN:
                          ---                                                                    ---
                            STORAGE =    70867.                                                    STORAGE =    1.3219    
                      CONSTANT HEAD =    6527.3                                              CONSTANT HEAD =    .24859    
                              WELLS =    .00000                                                      WELLS =    .00000    
0                          TOTAL IN =    77394.                                                   TOTAL IN =    1.5705    
0                        OUT:                                                                   OUT:
                         ----                                                                   ----
                            STORAGE =    .00000                                                    STORAGE =    .00000    
                      CONSTANT HEAD =    .00000                                              CONSTANT HEAD =    .00000    
                              WELLS =    77408.                                                      WELLS =    1.5707    
0                         TOTAL OUT =    77408.                                                  TOTAL OUT =    1.5707    
0                          IN - OUT =   -13.477                                                   IN - OUT =   -.25702E-03
0               PERCENT DISCREPANCY =                -.02                              PERCENT DISCREPANCY =                -.02



0


          TIME SUMMARY AT END OF TIME STEP 22 IN STRESS PERIOD  1
                               SECONDS        MINUTES         HOURS          DAYS           YEARS
                           ---------------------------------------------------------------------------
      TIME STEP LENGTH         14435.8        240.596        4.00994        .167081        .457442E-03
    STRESS PERIOD TIME         49280.6        821.344        13.6891        .570378        .156161E-02
 TOTAL SIMULATION TIME         49280.6        821.344        13.6891        .570378        .156161E-02
1
    21 ITERATIONS FOR TIME STEP  23 IN STRESS PERIOD  1
0MAXIMUM HEAD CHANGE FOR EACH ITERATION:
0 HEAD CHANGE LAYER,ROW,COL HEAD CHANGE LAYER,ROW,COL HEAD CHANGE LAYER,ROW,COL HEAD CHANGE LAYER,ROW,COL HEAD CHANGE LAYER,ROW,COL
 ------------------------------------------------------------------------------------------------------------------------------------
   -2.008     (  2,  7,  8)  -1.067     (  2,  3,  5)  -1.922     (  2,  1,  1)  -.2219     (  3,  1,  6)  -.7087     (  3,  1,  1)
    .2296E-01 (  3, 14, 13)   .3679E-01 (  3, 13, 11)   .5211E-01 (  3, 11,  8)   .1397     (  3,  1,  1)  -.1149E-01 (  3, 12, 10)
    .4014E-02 (  3, 10,  1)   .4827E-02 (  3, 10,  3)   .1114E-01 (  3,  8,  7)   .1302E-01 (  3,  1,  3)   .5908E-01 (  3,  4,  1)
   -.1995E-02 (  3, 14, 13)  -.3335E-02 (  3, 13, 12)  -.4795E-02 (  3, 10,  9)  -.9257E-02 (  3,  1,  1)  -.1021E-02 (  3,  1,  1)
   -.3115E-03 (  3, 10,  1)
0
0HEAD/DRAWDOWN PRINTOUT FLAG = 1     TOTAL BUDGET PRINTOUT FLAG = 1     CELL-BY-CELL FLOW TERM FLAG = 0
 REUSING PREVIOUS VALUES OF IOFLG
1                      HEAD IN LAYER  3 AT END OF TIME STEP 23 IN STRESS PERIOD  1
           -----------------------------------------------------------------------

           1       2       3       4       5       6       7       8       9      10      11      12      13      14      15
 ................................................................................................................................
0  1  -131.96 -112.33  -98.66  -87.67  -77.15  -66.87  -57.22  -48.14  -39.83  -33.46  -27.90  -22.54  -17.20  -12.07   -7.47
0  2  -112.33 -105.75  -96.53  -86.94  -76.89  -66.77  -57.18  -48.12  -39.82  -33.46  -27.90  -22.54  -17.20  -12.07   -7.47
0  3   -98.66  -96.53  -91.68  -84.75  -76.02  -66.44  -57.05  -48.07  -39.80  -33.44  -27.90  -22.54  -17.20  -12.07   -7.47
0  4   -87.67  -86.94  -84.75  -80.64  -74.07  -65.64  -56.73  -47.94  -39.75  -33.42  -27.88  -22.53  -17.19  -12.07   -7.47
0  5   -77.15  -76.89  -76.02  -74.07  -70.14  -63.75  -55.91  -47.60  -39.60  -33.34  -27.84  -22.51  -17.18  -12.06   -7.47
0  6   -66.87  -66.77  -66.44  -65.64  -63.75  -59.89  -53.97  -46.72  -39.21  -33.14  -27.73  -22.45  -17.15  -12.05   -7.47
0  7   -57.22  -57.18  -57.05  -56.73  -55.91  -53.97  -50.29  -44.79  -38.28  -32.64  -27.46  -22.31  -17.08  -12.02   -7.45
0  8   -48.14  -48.12  -48.07  -47.94  -47.60  -46.72  -44.79  -41.32  -36.39  -31.56  -26.85  -21.97  -16.91  -11.94   -7.42
0  9   -39.83  -39.82  -39.80  -39.75  -39.60  -39.21  -38.28  -36.39  -33.19  -29.54  -25.62  -21.27  -16.55  -11.77   -7.35
0 10   -33.46  -33.46  -33.44  -33.42  -33.34  -33.14  -32.64  -31.56  -29.54  -26.93  -23.88  -20.20  -15.97  -11.49   -7.24
0 11   -27.90  -27.90  -27.90  -27.88  -27.84  -27.73  -27.46  -26.85  -25.62  -23.88  -21.66  -18.74  -15.12  -11.06   -7.06
0 12   -22.54  -22.54  -22.54  -22.53  -22.51  -22.45  -22.31  -21.97  -21.27  -20.20  -18.74  -16.65  -13.82  -10.37   -6.75
0 13   -17.20  -17.20  -17.20  -17.19  -17.18  -17.15  -17.08  -16.91  -16.55  -15.97  -15.12  -13.82  -11.87   -9.24   -6.22
0 14   -12.07  -12.07  -12.07  -12.07  -12.06  -12.05  -12.02  -11.94  -11.77  -11.49  -11.06  -10.37   -9.24   -7.54   -5.33
0 15    -7.47   -7.47   -7.47   -7.47   -7.47   -7.47   -7.45   -7.42   -7.35   -7.24   -7.06   -6.75   -6.22   -5.33   -4.03
0 16    -4.04   -4.04   -4.04   -4.04   -4.04   -4.03   -4.03   -4.02   -3.99   -3.95   -3.88   -3.76   -3.55   -3.18   -2.56
0 17    -1.91   -1.91   -1.91   -1.91   -1.91   -1.91   -1.91   -1.90   -1.89   -1.88   -1.86   -1.81   -1.74   -1.60   -1.36
0 18     -.87    -.87    -.87    -.87    -.87    -.87    -.87    -.87    -.87    -.86    -.85    -.84    -.81    -.76    -.67
0 19     -.40    -.40    -.40    -.40    -.40    -.40    -.40    -.40    -.40    -.40    -.39    -.39    -.38    -.36    -.32
0 20     -.19    -.19    -.19    -.19    -.19    -.19    -.19    -.19    -.19    -.18    -.18    -.18    -.18    -.17    -.15
0 21     -.09    -.09    -.09    -.09    -.09    -.09    -.09    -.09    -.09    -.09    -.09    -.08    -.08    -.08    -.07
0 22     -.04    -.04    -.04    -.04    -.04    -.04    -.04    -.04    -.04    -.04    -.04    -.04    -.04    -.04    -.03
0 23     -.02    -.02    -.02    -.02    -.02    -.02    -.02    -.02    -.02    -.02    -.02    -.02    -.02    -.02    -.02
0 24     -.01    -.01    -.01    -.01    -.01    -.01    -.01    -.01    -.01    -.01    -.01    -.01    -.01    -.01    -.01
0 25     -.00    -.00    -.00    -.00    -.00    -.00    -.00    -.00    -.00    -.00    -.00    -.00    -.00    -.00    -.00
1                      HEAD IN LAYER  3 AT END OF TIME STEP 23 IN STRESS PERIOD  1
           -----------------------------------------------------------------------

          16      17      18      19      20      21      22      23      24      25
 ........................................................................................
0  1    -4.04   -1.91    -.87    -.40    -.19    -.09    -.04    -.02    -.01    -.00
0  2    -4.04   -1.91    -.87    -.40    -.19    -.09    -.04    -.02    -.01    -.00
0  3    -4.04   -1.91    -.87    -.40    -.19    -.09    -.04    -.02    -.01    -.00
0  4    -4.04   -1.91    -.87    -.40    -.19    -.09    -.04    -.02    -.01    -.00
0  5    -4.04   -1.91    -.87    -.40    -.19    -.09    -.04    -.02    -.01    -.00
0  6    -4.03   -1.91    -.87    -.40    -.19    -.09    -.04    -.02    -.01    -.00
0  7    -4.03   -1.90    -.87    -.40    -.19    -.09    -.04    -.02    -.01    -.00
0  8    -4.02   -1.90    -.87    -.40    -.19    -.09    -.04    -.02    -.01    -.00
0  9    -3.99   -1.89    -.87    -.40    -.19    -.09    -.04    -.02    -.01    -.00
0 10    -3.95   -1.88    -.86    -.40    -.18    -.09    -.04    -.02    -.01    -.00
0 11    -3.88   -1.86    -.85    -.39    -.18    -.08    -.04    -.02    -.01    -.00
0 12    -3.76   -1.81    -.84    -.39    -.18    -.08    -.04    -.02    -.01    -.00
0 13    -3.55   -1.74    -.81    -.38    -.18    -.08    -.04    -.02    -.01    -.00
0 14    -3.18   -1.60    -.76    -.36    -.17    -.08    -.04    -.02    -.01    -.00
0 15    -2.56   -1.36    -.67    -.32    -.15    -.07    -.03    -.02    -.01    -.00
0 16    -1.76   -1.00    -.52    -.26    -.13    -.06    -.03    -.01    -.01    -.00
0 17    -1.00    -.62    -.35    -.18    -.09    -.05    -.02    -.01    -.01    -.00
0 18     -.52    -.35    -.21    -.12    -.06    -.03    -.02    -.01    -.00    -.00
0 19     -.26    -.18    -.12    -.07    -.04    -.02    -.01    -.01    -.00    -.00
0 20     -.13    -.09    -.06    -.04    -.02    -.01    -.01    -.00    -.00    -.00
0 21     -.06    -.05    -.03    -.02    -.01    -.01    -.00    -.00    -.00     .00
0 22     -.03    -.02    -.02    -.01    -.01    -.00    -.00    -.00     .00     .00
0 23     -.01    -.01    -.01    -.01    -.00    -.00    -.00     .00     .00     .00
0 24     -.01    -.01    -.00    -.00    -.00    -.00     .00     .00     .00     .00
0 25     -.00    -.00    -.00    -.00    -.00     .00     .00     .00     .00     .00
0


                              VOLUMETRIC BUDGET FOR ENTIRE MODEL AT END OF TIME STEP 23 IN STRESS PERIOD  1
                              -----------------------------------------------------------------------------
0                   CUMULATIVE VOLUMES      L**3                                     RATES FOR THIS TIME STEP      L**3/T
                    ------------------                                               ------------------------

                          IN:                                                                    IN:
                          ---                                                                    ---
                            STORAGE =    95533.                                                    STORAGE =    1.2084    
                      CONSTANT HEAD =    13917.                                              CONSTANT HEAD =    .36202    
                              WELLS =    .00000                                                      WELLS =    .00000    
0                          TOTAL IN =    .10945E+06                                               TOTAL IN =    1.5704    
0                        OUT:                                                                   OUT:
                         ----                                                                   ----
                            STORAGE =    .00000                                                    STORAGE =    .00000    
                      CONSTANT HEAD =    .00000                                              CONSTANT HEAD =    .00000    
                              WELLS =    .10947E+06                                                  WELLS =    1.5707    
0                         TOTAL OUT =    .10947E+06                                              TOTAL OUT =    1.5707    
0                          IN - OUT =   -19.984                                                   IN - OUT =   -.31912E-03
0               PERCENT DISCREPANCY =                -.02                              PERCENT DISCREPANCY =                -.02



0


          TIME SUMMARY AT END OF TIME STEP 23 IN STRESS PERIOD  1
                               SECONDS        MINUTES         HOURS          DAYS           YEARS
                           ---------------------------------------------------------------------------
      TIME STEP LENGTH         20412.2        340.203        5.67005        .236252        .646823E-03
    STRESS PERIOD TIME         69692.8        1161.55        19.3591        .806630        .220843E-02
 TOTAL SIMULATION TIME         69692.8        1161.55        19.3591        .806630        .220843E-02
1
    21 ITERATIONS FOR TIME STEP  24 IN STRESS PERIOD  1
0MAXIMUM HEAD CHANGE FOR EACH ITERATION:
0 HEAD CHANGE LAYER,ROW,COL HEAD CHANGE LAYER,ROW,COL HEAD CHANGE LAYER,ROW,COL HEAD CHANGE LAYER,ROW,COL HEAD CHANGE LAYER,ROW,COL
 ------------------------------------------------------------------------------------------------------------------------------------
   -2.129     (  2,  8,  8)  -1.097     (  2,  4,  5)  -2.098     (  2,  1,  1)  -.2290     (  3,  1,  6)  -.7672     (  3,  1,  1)
    .2475E-01 (  3, 15, 13)  -.4340E-01 (  2,  1,  1)   .5470E-01 (  3, 11,  8)   .1414     (  3,  1,  1)  -.1110E-01 (  3, 12, 11)
    .4312E-02 (  3, 10,  1)   .5354E-02 (  3, 10,  3)   .1254E-01 (  3,  6,  9)   .1475E-01 (  3,  1,  3)   .6977E-01 (  3,  4,  1)
   -.2347E-02 (  3, 14, 13)  -.3911E-02 (  3, 13, 12)  -.5516E-02 (  3, 11,  9)  -.1039E-01 (  3,  1,  1)  -.1255E-02 (  3,  1,  1)
   -.3716E-03 (  3, 10,  1)
0
0HEAD/DRAWDOWN PRINTOUT FLAG = 1     TOTAL BUDGET PRINTOUT FLAG = 1     CELL-BY-CELL FLOW TERM FLAG = 0
 REUSING PREVIOUS VALUES OF IOFLG
1                      HEAD IN LAYER  3 AT END OF TIME STEP 24 IN STRESS PERIOD  1
           -----------------------------------------------------------------------

           1       2       3       4       5       6       7       8       9      10      11      12      13      14      15
 ................................................................................................................................
0  1  -132.76 -113.13  -99.47  -88.47  -77.95  -67.67  -58.02  -48.93  -40.61  -34.23  -28.65  -23.26  -17.87  -12.66   -7.96
0  2  -113.13 -106.55  -97.33  -87.74  -77.69  -67.57  -57.98  -48.92  -40.61  -34.22  -28.65  -23.26  -17.86  -12.66   -7.96
0  3   -99.47  -97.33  -92.48  -85.55  -76.82  -67.24  -57.85  -48.86  -40.58  -34.21  -28.64  -23.25  -17.86  -12.66   -7.95
0  4   -88.47  -87.74  -85.55  -81.44  -74.87  -66.44  -57.53  -48.73  -40.53  -34.18  -28.63  -23.24  -17.86  -12.66   -7.95
0  5   -77.95  -77.69  -76.82  -74.87  -70.94  -64.55  -56.71  -48.39  -40.38  -34.11  -28.59  -23.22  -17.85  -12.65   -7.95
0  6   -67.67  -67.57  -67.24  -66.44  -64.55  -60.69  -54.77  -47.51  -39.99  -33.90  -28.48  -23.16  -17.82  -12.64   -7.95
0  7   -58.02  -57.98  -57.85  -57.53  -56.71  -54.77  -51.08  -45.58  -39.06  -33.41  -28.21  -23.02  -17.75  -12.60   -7.93
0  8   -48.93  -48.92  -48.86  -48.73  -48.39  -47.51  -45.58  -42.10  -37.16  -32.32  -27.59  -22.68  -17.58  -12.53   -7.90
0  9   -40.61  -40.61  -40.58  -40.53  -40.38  -39.99  -39.06  -37.16  -33.96  -30.30  -26.36  -21.98  -17.21  -12.35   -7.83
0 10   -34.23  -34.22  -34.21  -34.18  -34.11  -33.90  -33.41  -32.32  -30.30  -27.68  -24.60  -20.90  -16.62  -12.07   -7.71
0 11   -28.65  -28.65  -28.64  -28.63  -28.59  -28.48  -28.21  -27.59  -26.36  -24.60  -22.36  -19.42  -15.76  -11.63   -7.52
0 12   -23.26  -23.26  -23.25  -23.24  -23.22  -23.16  -23.02  -22.68  -21.98  -20.90  -19.42  -17.31  -14.44  -10.92   -7.21
0 13   -17.87  -17.87  -17.86  -17.86  -17.85  -17.82  -17.75  -17.58  -17.21  -16.62  -15.76  -14.44  -12.46   -9.77   -6.66
0 14   -12.66  -12.66  -12.66  -12.66  -12.65  -12.64  -12.61  -12.53  -12.35  -12.07  -11.64  -10.92   -9.77   -8.02   -5.74
0 15    -7.96   -7.96   -7.96   -7.95   -7.95   -7.95   -7.93   -7.90   -7.83   -7.71   -7.52   -7.21   -6.66   -5.74   -4.38
0 16    -4.39   -4.39   -4.39   -4.39   -4.39   -4.38   -4.38   -4.37   -4.34   -4.30   -4.23   -4.10   -3.88   -3.48   -2.83
0 17    -2.13   -2.13   -2.13   -2.13   -2.13   -2.13   -2.13   -2.13   -2.12   -2.10   -2.08   -2.03   -1.95   -1.80   -1.54
0 18    -1.01   -1.01   -1.01   -1.01   -1.01   -1.01   -1.00   -1.00   -1.00    -.99    -.99    -.97    -.94    -.88    -.78
0 19     -.48    -.48    -.48    -.48    -.48    -.48    -.48    -.48    -.48    -.48    -.47    -.47    -.46    -.43    -.39
0 20     -.23    -.23    -.23    -.23    -.23    -.23    -.23    -.23    -.23    -.23    -.23    -.23    -.22    -.21    -.19
0 21     -.11    -.11    -.11    -.11    -.11    -.11    -.11    -.11    -.11    -.11    -.11    -.11    -.11    -.10    -.10
0 22     -.05    -.05    -.05    -.05    -.05    -.05    -.05    -.05    -.05    -.05    -.05    -.05    -.05    -.05    -.05
0 23     -.03    -.03    -.03    -.03    -.03    -.03    -.03    -.03    -.03    -.03    -.03    -.03    -.03    -.03    -.02
0 24     -.01    -.01    -.01    -.01    -.01    -.01    -.01    -.01    -.01    -.01    -.01    -.01    -.01    -.01    -.01
0 25     -.01    -.01    -.01    -.01    -.01    -.01    -.01    -.01    -.01    -.01    -.01    -.01    -.01    -.01    -.01
1                      HEAD IN LAYER  3 AT END OF TIME STEP 24 IN STRESS PERIOD  1
           -----------------------------------------------------------------------

          16      17      18      19      20      21      22      23      24      25
 ........................................................................................
0  1    -4.39   -2.13   -1.01    -.48    -.23    -.11    -.05    -.03    -.01    -.01
0  2    -4.39   -2.13   -1.01    -.48    -.23    -.11    -.05    -.03    -.01    -.01
0  3    -4.39   -2.13   -1.01    -.48    -.23    -.11    -.05    -.03    -.01    -.01
0  4    -4.39   -2.13   -1.01    -.48    -.23    -.11    -.05    -.03    -.01    -.01
0  5    -4.39   -2.13   -1.01    -.48    -.23    -.11    -.05    -.03    -.01    -.01
0  6    -4.38   -2.13   -1.01    -.48    -.23    -.11    -.05    -.03    -.01    -.01
0  7    -4.38   -2.13   -1.00    -.48    -.23    -.11    -.05    -.03    -.01    -.01
0  8    -4.37   -2.13   -1.00    -.48    -.23    -.11    -.05    -.03    -.01    -.01
0  9    -4.34   -2.12   -1.00    -.48    -.23    -.11    -.05    -.03    -.01    -.01
0 10    -4.30   -2.10    -.99    -.48    -.23    -.11    -.05    -.03    -.01    -.01
0 11    -4.22   -2.08    -.99    -.47    -.23    -.11    -.05    -.03    -.01    -.01
0 12    -4.10   -2.03    -.97    -.47    -.23    -.11    -.05    -.03    -.01    -.01
0 13    -3.88   -1.95    -.94    -.46    -.22    -.11    -.05    -.03    -.01    -.01
0 14    -3.48   -1.80    -.88    -.43    -.21    -.10    -.05    -.03    -.01    -.01
0 15    -2.83   -1.54    -.78    -.39    -.19    -.10    -.05    -.02    -.01    -.01
0 16    -1.97   -1.16    -.62    -.32    -.16    -.08    -.04    -.02    -.01    -.01
0 17    -1.16    -.73    -.42    -.23    -.12    -.06    -.03    -.02    -.01    -.01
0 18     -.62    -.42    -.26    -.15    -.08    -.04    -.02    -.01    -.01    -.00
0 19     -.32    -.23    -.15    -.09    -.05    -.03    -.02    -.01    -.01    -.00
0 20     -.16    -.12    -.08    -.05    -.03    -.02    -.01    -.01    -.00    -.00
0 21     -.08    -.06    -.04    -.03    -.02    -.01    -.01    -.00    -.00    -.00
0 22     -.04    -.03    -.02    -.02    -.01    -.01    -.00    -.00    -.00    -.00
0 23     -.02    -.02    -.01    -.01    -.01    -.00    -.00    -.00     .00     .00
0 24     -.01    -.01    -.01    -.01    -.00    -.00    -.00     .00     .00     .00
0 25     -.01    -.01    -.00    -.00    -.00    -.00    -.00     .00     .00     .00
0


                              VOLUMETRIC BUDGET FOR ENTIRE MODEL AT END OF TIME STEP 24 IN STRESS PERIOD  1
                              -----------------------------------------------------------------------------
0                   CUMULATIVE VOLUMES      L**3                                     RATES FOR THIS TIME STEP      L**3/T
                    ------------------                                               ------------------------

                          IN:                                                                    IN:
                          ---                                                                    ---
                            STORAGE =    .12628E+06                                                STORAGE =    1.0651    
                      CONSTANT HEAD =    28500.                                              CONSTANT HEAD =    .50525    
                              WELLS =    .00000                                                      WELLS =    .00000    
0                          TOTAL IN =    .15477E+06                                               TOTAL IN =    1.5704    
0                        OUT:                                                                   OUT:
                         ----                                                                   ----
                            STORAGE =    .00000                                                    STORAGE =    .00000    
                      CONSTANT HEAD =    .00000                                              CONSTANT HEAD =    .00000    
                              WELLS =    .15481E+06                                                  WELLS =    1.5707    
0                         TOTAL OUT =    .15481E+06                                              TOTAL OUT =    1.5707    
0                          IN - OUT =   -31.422                                                   IN - OUT =   -.39625E-03
0               PERCENT DISCREPANCY =                -.02                              PERCENT DISCREPANCY =                -.03



0


          TIME SUMMARY AT END OF TIME STEP 24 IN STRESS PERIOD  1
                               SECONDS        MINUTES         HOURS          DAYS           YEARS
                           ---------------------------------------------------------------------------
      TIME STEP LENGTH         28862.8        481.047        8.01745        .334061        .914608E-03
    STRESS PERIOD TIME         98555.6        1642.59        27.3766        1.14069        .312304E-02
 TOTAL SIMULATION TIME         98555.6        1642.59        27.3766        1.14069        .312304E-02
1
    21 ITERATIONS FOR TIME STEP  25 IN STRESS PERIOD  1
0MAXIMUM HEAD CHANGE FOR EACH ITERATION:
0 HEAD CHANGE LAYER,ROW,COL HEAD CHANGE LAYER,ROW,COL HEAD CHANGE LAYER,ROW,COL HEAD CHANGE LAYER,ROW,COL HEAD CHANGE LAYER,ROW,COL
 ------------------------------------------------------------------------------------------------------------------------------------
   -2.071     (  2,  8,  8)  -1.055     (  2,  6,  4)  -2.076     (  2,  1,  1)  -.2386     (  3,  1,  6)  -.8260     (  3,  1,  1)
    .2680E-01 (  3, 15, 14)  -.4978E-01 (  2,  1,  1)   .5718E-01 (  3, 11,  9)   .1444     (  3,  1,  1)   .1095E-01 (  3,  1,  1)
    .4608E-02 (  3, 10,  1)   .5859E-02 (  3, 10,  3)   .1394E-01 (  3,  6,  9)   .1644E-01 (  3,  1,  3)   .8059E-01 (  3,  3,  1)
   -.2688E-02 (  3, 14, 13)  -.4472E-02 (  3, 13, 12)  -.6251E-02 (  3, 11,  9)  -.1142E-01 (  3,  1,  1)  -.1494E-02 (  3,  1,  1)
   -.4304E-03 (  3, 10,  1)
0
0HEAD/DRAWDOWN PRINTOUT FLAG = 1     TOTAL BUDGET PRINTOUT FLAG = 1     CELL-BY-CELL FLOW TERM FLAG = 0
 REUSING PREVIOUS VALUES OF IOFLG
1                      HEAD IN LAYER  3 AT END OF TIME STEP 25 IN STRESS PERIOD  1
           -----------------------------------------------------------------------

           1       2       3       4       5       6       7       8       9      10      11      12      13      14      15
 ................................................................................................................................
0  1  -133.61 -113.98 -100.32  -89.32  -78.80  -68.52  -58.87  -49.78  -41.45  -35.05  -29.45  -24.02  -18.58  -13.29   -8.48
0  2  -113.98 -107.40  -98.19  -88.59  -78.54  -68.42  -58.83  -49.76  -41.44  -35.04  -29.45  -24.02  -18.58  -13.29   -8.48
0  3  -100.32  -98.19  -93.33  -86.40  -77.67  -68.09  -58.70  -49.71  -41.42  -35.03  -29.44  -24.02  -18.58  -13.29   -8.48
0  4   -89.32  -88.59  -86.40  -82.29  -75.72  -67.29  -58.38  -49.58  -41.36  -35.00  -29.43  -24.01  -18.57  -13.29   -8.48
0  5   -78.80  -78.54  -77.67  -75.72  -71.79  -65.40  -57.56  -49.23  -41.21  -34.93  -29.39  -23.99  -18.56  -13.29   -8.47
0  6   -68.52  -68.42  -68.09  -67.29  -65.40  -61.54  -55.61  -48.35  -40.82  -34.72  -29.28  -23.93  -18.53  -13.27   -8.47
0  7   -58.86  -58.83  -58.70  -58.38  -57.56  -55.61  -51.93  -46.42  -39.90  -34.23  -29.00  -23.78  -18.46  -13.24   -8.45
0  8   -49.78  -49.76  -49.71  -49.58  -49.23  -48.35  -46.42  -42.94  -37.99  -33.14  -28.39  -23.44  -18.29  -13.16   -8.42
0  9   -41.45  -41.44  -41.42  -41.36  -41.21  -40.82  -39.90  -37.99  -34.78  -31.10  -27.15  -22.74  -17.92  -12.98   -8.35
0 10   -35.05  -35.04  -35.03  -35.00  -34.93  -34.72  -34.23  -33.14  -31.10  -28.47  -25.38  -21.65  -17.32  -12.69   -8.22
0 11   -29.45  -29.45  -29.44  -29.43  -29.39  -29.28  -29.00  -28.39  -27.15  -25.38  -23.12  -20.16  -16.45  -12.25   -8.03
0 12   -24.02  -24.02  -24.02  -24.01  -23.99  -23.93  -23.78  -23.44  -22.74  -21.65  -20.16  -18.02  -15.10  -11.52   -7.70
0 13   -18.58  -18.58  -18.58  -18.57  -18.56  -18.53  -18.46  -18.29  -17.92  -17.32  -16.45  -15.10  -13.09  -10.34   -7.14
0 14   -13.30  -13.29  -13.29  -13.29  -13.29  -13.27  -13.24  -13.16  -12.98  -12.69  -12.25  -11.52  -10.34   -8.55   -6.18
0 15    -8.48   -8.48   -8.48   -8.48   -8.47   -8.47   -8.45   -8.42   -8.35   -8.22   -8.03   -7.70   -7.14   -6.18   -4.76
0 16    -4.77   -4.77   -4.77   -4.77   -4.77   -4.77   -4.76   -4.75   -4.72   -4.67   -4.60   -4.47   -4.24   -3.82   -3.13
0 17    -2.38   -2.38   -2.38   -2.38   -2.38   -2.38   -2.38   -2.37   -2.36   -2.35   -2.32   -2.27   -2.19   -2.03   -1.74
0 18    -1.16   -1.16   -1.16   -1.16   -1.16   -1.16   -1.15   -1.15   -1.15   -1.14   -1.13   -1.12   -1.08   -1.02    -.91
0 19     -.57    -.57    -.57    -.57    -.57    -.57    -.57    -.57    -.57    -.56    -.56    -.55    -.54    -.52    -.47
0 20     -.28    -.28    -.28    -.28    -.28    -.28    -.28    -.28    -.28    -.28    -.28    -.28    -.27    -.26    -.24
0 21     -.14    -.14    -.14    -.14    -.14    -.14    -.14    -.14    -.14    -.14    -.14    -.14    -.14    -.13    -.12
0 22     -.07    -.07    -.07    -.07    -.07    -.07    -.07    -.07    -.07    -.07    -.07    -.07    -.07    -.07    -.06
0 23     -.04    -.04    -.04    -.04    -.04    -.04    -.04    -.04    -.04    -.04    -.04    -.04    -.04    -.03    -.03
0 24     -.02    -.02    -.02    -.02    -.02    -.02    -.02    -.02    -.02    -.02    -.02    -.02    -.02    -.02    -.02
0 25     -.01    -.01    -.01    -.01    -.01    -.01    -.01    -.01    -.01    -.01    -.01    -.01    -.01    -.01    -.01
1                      HEAD IN LAYER  3 AT END OF TIME STEP 25 IN STRESS PERIOD  1
           -----------------------------------------------------------------------

          16      17      18      19      20      21      22      23      24      25
 ........................................................................................
0  1    -4.77   -2.38   -1.16    -.57    -.28    -.14    -.07    -.04    -.02    -.01
0  2    -4.77   -2.38   -1.16    -.57    -.28    -.14    -.07    -.04    -.02    -.01
0  3    -4.77   -2.38   -1.16    -.57    -.28    -.14    -.07    -.04    -.02    -.01
0  4    -4.77   -2.38   -1.16    -.57    -.28    -.14    -.07    -.04    -.02    -.01
0  5    -4.77   -2.38   -1.16    -.57    -.28    -.14    -.07    -.04    -.02    -.01
0  6    -4.77   -2.38   -1.16    -.57    -.28    -.14    -.07    -.04    -.02    -.01
0  7    -4.76   -2.38   -1.15    -.57    -.28    -.14    -.07    -.04    -.02    -.01
0  8    -4.75   -2.37   -1.15    -.57    -.28    -.14    -.07    -.04    -.02    -.01
0  9    -4.72   -2.36   -1.15    -.57    -.28    -.14    -.07    -.04    -.02    -.01
0 10    -4.67   -2.35   -1.14    -.56    -.28    -.14    -.07    -.04    -.02    -.01
0 11    -4.60   -2.32   -1.13    -.56    -.28    -.14    -.07    -.04    -.02    -.01
0 12    -4.47   -2.27   -1.12    -.55    -.28    -.14    -.07    -.04    -.02    -.01
0 13    -4.24   -2.19   -1.08    -.54    -.27    -.14    -.07    -.04    -.02    -.01
0 14    -3.82   -2.03   -1.02    -.52    -.26    -.13    -.07    -.03    -.02    -.01
0 15    -3.13   -1.74    -.91    -.47    -.24    -.12    -.06    -.03    -.02    -.01
0 16    -2.21   -1.32    -.73    -.39    -.20    -.11    -.06    -.03    -.02    -.01
0 17    -1.32    -.86    -.50    -.28    -.16    -.08    -.04    -.02    -.01    -.01
0 18     -.73    -.50    -.31    -.19    -.11    -.06    -.03    -.02    -.01    -.01
0 19     -.39    -.28    -.19    -.12    -.07    -.04    -.02    -.01    -.01    -.01
0 20     -.20    -.16    -.11    -.07    -.04    -.03    -.02    -.01    -.01    -.00
0 21     -.11    -.08    -.06    -.04    -.03    -.02    -.01    -.01    -.00    -.00
0 22     -.06    -.04    -.03    -.02    -.02    -.01    -.01    -.00    -.00    -.00
0 23     -.03    -.02    -.02    -.01    -.01    -.01    -.00    -.00    -.00    -.00
0 24     -.02    -.01    -.01    -.01    -.01    -.00    -.00    -.00    -.00     .00
0 25     -.01    -.01    -.01    -.01    -.00    -.00    -.00    -.00     .00     .00
0


                              VOLUMETRIC BUDGET FOR ENTIRE MODEL AT END OF TIME STEP 25 IN STRESS PERIOD  1
                              -----------------------------------------------------------------------------
0                   CUMULATIVE VOLUMES      L**3                                     RATES FOR THIS TIME STEP      L**3/T
                    ------------------                                               ------------------------

                          IN:                                                                    IN:
                          ---                                                                    ---
                            STORAGE =    .16277E+06                                                STORAGE =    .89421    
                      CONSTANT HEAD =    56091.                                              CONSTANT HEAD =    .67607    
                              WELLS =    .00000                                                      WELLS =    .00000    
0                          TOTAL IN =    .21886E+06                                               TOTAL IN =    1.5703    
0                        OUT:                                                                   OUT:
                         ----                                                                   ----
                            STORAGE =    .00000                                                    STORAGE =    .00000    
                      CONSTANT HEAD =    .00000                                              CONSTANT HEAD =    .00000    
                              WELLS =    .21891E+06                                                  WELLS =    1.5707    
0                         TOTAL OUT =    .21891E+06                                              TOTAL OUT =    1.5707    
0                          IN - OUT =   -50.813                                                   IN - OUT =   -.47517E-03
0               PERCENT DISCREPANCY =                -.02                              PERCENT DISCREPANCY =                -.03



0


          TIME SUMMARY AT END OF TIME STEP 25 IN STRESS PERIOD  1
                               SECONDS        MINUTES         HOURS          DAYS           YEARS
                           ---------------------------------------------------------------------------
      TIME STEP LENGTH         40812.0        680.201        11.3367        .472362        .129326E-02
    STRESS PERIOD TIME         139368.        2322.79        38.7132        1.61305        .441630E-02
 TOTAL SIMULATION TIME         139368.        2322.79        38.7132        1.61305        .441630E-02
1
    21 ITERATIONS FOR TIME STEP  26 IN STRESS PERIOD  1
0MAXIMUM HEAD CHANGE FOR EACH ITERATION:
0 HEAD CHANGE LAYER,ROW,COL HEAD CHANGE LAYER,ROW,COL HEAD CHANGE LAYER,ROW,COL HEAD CHANGE LAYER,ROW,COL HEAD CHANGE LAYER,ROW,COL
 ------------------------------------------------------------------------------------------------------------------------------------
   -1.800     (  2,  8,  8)  -.9216     (  2,  6,  5)  -1.835     (  2,  1,  1)  -.2359     (  3,  1,  6)  -.8351     (  3,  1,  1)
    .2724E-01 (  3, 15, 14)  -.4896E-01 (  2,  1,  1)   .5624E-01 (  3, 11,  9)   .1403     (  3,  1,  1)   .1151E-01 (  3,  1,  1)
    .4629E-02 (  3, 10,  1)   .5996E-02 (  3, 10,  4)   .1446E-01 (  3,  6,  9)   .1713E-01 (  3,  1,  3)   .8649E-01 (  3,  3,  1)
   -.2849E-02 (  3, 14, 13)  -.4741E-02 (  3, 13, 12)  -.6576E-02 (  3, 11,  9)  -.1168E-01 (  3,  1,  1)  -.1643E-02 (  3,  1,  1)
   -.4611E-03 (  3, 10,  1)
0
0HEAD/DRAWDOWN PRINTOUT FLAG = 1     TOTAL BUDGET PRINTOUT FLAG = 1     CELL-BY-CELL FLOW TERM FLAG = 0
 REUSING PREVIOUS VALUES OF IOFLG
1                      HEAD IN LAYER  3 AT END OF TIME STEP 26 IN STRESS PERIOD  1
           -----------------------------------------------------------------------

           1       2       3       4       5       6       7       8       9      10      11      12      13      14      15
 ................................................................................................................................
0  1  -134.46 -114.83 -101.17  -90.17  -79.65  -69.37  -59.71  -50.62  -42.28  -35.87  -30.25  -24.80  -19.30  -13.94   -9.02
0  2  -114.83 -108.25  -99.04  -89.44  -79.39  -69.27  -59.68  -50.60  -42.28  -35.87  -30.25  -24.79  -19.30  -13.94   -9.02
0  3  -101.17  -99.04  -94.18  -87.25  -78.52  -68.94  -59.55  -50.55  -42.25  -35.85  -30.24  -24.79  -19.30  -13.94   -9.02
0  4   -90.17  -89.44  -87.25  -83.14  -76.57  -68.14  -59.22  -50.42  -42.20  -35.83  -30.23  -24.78  -19.30  -13.94   -9.01
0  5   -79.65  -79.39  -78.52  -76.57  -72.64  -66.25  -58.40  -50.07  -42.05  -35.75  -30.19  -24.76  -19.29  -13.94   -9.01
0  6   -69.37  -69.27  -68.94  -68.14  -66.25  -62.39  -56.46  -49.19  -41.66  -35.54  -30.08  -24.70  -19.26  -13.92   -9.01
0  7   -59.71  -59.68  -59.55  -59.22  -58.40  -56.46  -52.77  -47.26  -40.73  -35.05  -29.80  -24.55  -19.18  -13.89   -8.99
0  8   -50.62  -50.60  -50.55  -50.42  -50.07  -49.19  -47.26  -43.78  -38.82  -33.95  -29.18  -24.21  -19.01  -13.81   -8.96
0  9   -42.28  -42.28  -42.25  -42.20  -42.05  -41.66  -40.73  -38.82  -35.60  -31.91  -27.94  -23.50  -18.63  -13.63   -8.88
0 10   -35.87  -35.87  -35.85  -35.83  -35.75  -35.54  -35.05  -33.95  -31.91  -29.27  -26.16  -22.40  -18.03  -13.33   -8.75
0 11   -30.25  -30.25  -30.24  -30.23  -30.19  -30.08  -29.80  -29.18  -27.94  -26.16  -23.89  -20.90  -17.15  -12.88   -8.56
0 12   -24.80  -24.79  -24.79  -24.78  -24.76  -24.70  -24.55  -24.21  -23.50  -22.40  -20.90  -18.73  -15.78  -12.14   -8.22
0 13   -19.30  -19.30  -19.30  -19.30  -19.29  -19.26  -19.18  -19.01  -18.63  -18.03  -17.15  -15.78  -13.73  -10.93   -7.63
0 14   -13.94  -13.94  -13.94  -13.94  -13.94  -13.92  -13.89  -13.81  -13.63  -13.33  -12.88  -12.14  -10.93   -9.09   -6.65
0 15    -9.02   -9.02   -9.02   -9.01   -9.01   -9.01   -8.99   -8.96   -8.88   -8.76   -8.56   -8.22   -7.63   -6.65   -5.16
0 16    -5.17   -5.17   -5.17   -5.17   -5.17   -5.17   -5.16   -5.15   -5.12   -5.07   -4.99   -4.86   -4.61   -4.17   -3.44
0 17    -2.65   -2.65   -2.65   -2.65   -2.65   -2.65   -2.64   -2.64   -2.63   -2.61   -2.58   -2.53   -2.44   -2.27   -1.96
0 18    -1.32   -1.32   -1.32   -1.32   -1.32   -1.32   -1.32   -1.32   -1.31   -1.31   -1.30   -1.28   -1.24   -1.17   -1.05
0 19     -.67    -.67    -.67    -.67    -.67    -.67    -.67    -.67    -.67    -.66    -.66    -.65    -.64    -.61    -.56
0 20     -.34    -.34    -.34    -.34    -.34    -.34    -.34    -.34    -.34    -.34    -.34    -.34    -.33    -.32    -.29
0 21     -.18    -.18    -.18    -.18    -.18    -.18    -.18    -.18    -.18    -.18    -.17    -.17    -.17    -.17    -.15
0 22     -.09    -.09    -.09    -.09    -.09    -.09    -.09    -.09    -.09    -.09    -.09    -.09    -.09    -.09    -.08
0 23     -.05    -.05    -.05    -.05    -.05    -.05    -.05    -.05    -.05    -.05    -.05    -.05    -.05    -.05    -.04
0 24     -.03    -.03    -.03    -.03    -.03    -.03    -.03    -.03    -.03    -.03    -.03    -.03    -.03    -.03    -.02
0 25     -.02    -.02    -.02    -.02    -.02    -.02    -.02    -.02    -.02    -.02    -.02    -.02    -.02    -.02    -.02
1                      HEAD IN LAYER  3 AT END OF TIME STEP 26 IN STRESS PERIOD  1
           -----------------------------------------------------------------------

          16      17      18      19      20      21      22      23      24      25
 ........................................................................................
0  1    -5.17   -2.65   -1.32    -.67    -.34    -.18    -.09    -.05    -.03    -.02
0  2    -5.17   -2.65   -1.32    -.67    -.34    -.18    -.09    -.05    -.03    -.02
0  3    -5.17   -2.65   -1.32    -.67    -.34    -.18    -.09    -.05    -.03    -.02
0  4    -5.17   -2.65   -1.32    -.67    -.34    -.18    -.09    -.05    -.03    -.02
0  5    -5.17   -2.65   -1.32    -.67    -.34    -.18    -.09    -.05    -.03    -.02
0  6    -5.17   -2.65   -1.32    -.67    -.34    -.18    -.09    -.05    -.03    -.02
0  7    -5.16   -2.64   -1.32    -.67    -.34    -.18    -.09    -.05    -.03    -.02
0  8    -5.15   -2.64   -1.32    -.67    -.34    -.18    -.09    -.05    -.03    -.02
0  9    -5.12   -2.63   -1.31    -.67    -.34    -.18    -.09    -.05    -.03    -.02
0 10    -5.07   -2.61   -1.31    -.66    -.34    -.18    -.09    -.05    -.03    -.02
0 11    -4.99   -2.58   -1.30    -.66    -.34    -.17    -.09    -.05    -.03    -.02
0 12    -4.86   -2.53   -1.28    -.65    -.34    -.17    -.09    -.05    -.03    -.02
0 13    -4.61   -2.44   -1.24    -.64    -.33    -.17    -.09    -.05    -.03    -.02
0 14    -4.17   -2.27   -1.17    -.61    -.32    -.16    -.09    -.05    -.03    -.02
0 15    -3.44   -1.96   -1.05    -.56    -.29    -.15    -.08    -.04    -.02    -.02
0 16    -2.47   -1.51    -.85    -.46    -.25    -.14    -.07    -.04    -.02    -.01
0 17    -1.51    -.99    -.60    -.34    -.19    -.11    -.06    -.03    -.02    -.01
0 18     -.85    -.60    -.38    -.23    -.14    -.08    -.04    -.03    -.02    -.01
0 19     -.46    -.34    -.23    -.15    -.09    -.05    -.03    -.02    -.01    -.01
0 20     -.25    -.19    -.14    -.09    -.06    -.04    -.02    -.01    -.01    -.01
0 21     -.14    -.11    -.08    -.05    -.04    -.02    -.01    -.01    -.01    -.00
0 22     -.07    -.06    -.04    -.03    -.02    -.01    -.01    -.01    -.00    -.00
0 23     -.04    -.03    -.03    -.02    -.01    -.01    -.01    -.00    -.00    -.00
0 24     -.02    -.02    -.02    -.01    -.01    -.01    -.00    -.00    -.00    -.00
0 25     -.01    -.01    -.01    -.01    -.01    -.00    -.00    -.00    -.00    -.00
0


                              VOLUMETRIC BUDGET FOR ENTIRE MODEL AT END OF TIME STEP 26 IN STRESS PERIOD  1
                              -----------------------------------------------------------------------------
0                   CUMULATIVE VOLUMES      L**3                                     RATES FOR THIS TIME STEP      L**3/T
                    ------------------                                               ------------------------

                          IN:                                                                    IN:
                          ---                                                                    ---
                            STORAGE =    .20338E+06                                                STORAGE =    .70380    
                      CONSTANT HEAD =    .10609E+06                                          CONSTANT HEAD =    .86642    
                              WELLS =    .00000                                                      WELLS =    .00000    
0                          TOTAL IN =    .30948E+06                                               TOTAL IN =    1.5702    
0                        OUT:                                                                   OUT:
                         ----                                                                   ----
                            STORAGE =    .00000                                                    STORAGE =    .00000    
                      CONSTANT HEAD =    .00000                                              CONSTANT HEAD =    .00000    
                              WELLS =    .30956E+06                                                  WELLS =    1.5707    
0                         TOTAL OUT =    .30956E+06                                              TOTAL OUT =    1.5707    
0                          IN - OUT =   -81.031                                                   IN - OUT =   -.52404E-03
0               PERCENT DISCREPANCY =                -.03                              PERCENT DISCREPANCY =                -.03



0


          TIME SUMMARY AT END OF TIME STEP 26 IN STRESS PERIOD  1
                               SECONDS        MINUTES         HOURS          DAYS           YEARS
                           ---------------------------------------------------------------------------
      TIME STEP LENGTH         57708.2        961.804        16.0301        .667919        .182866E-02
    STRESS PERIOD TIME         197076.        3284.60        54.7433        2.28097        .624496E-02
 TOTAL SIMULATION TIME         197076.        3284.60        54.7433        2.28097        .624496E-02
1
    21 ITERATIONS FOR TIME STEP  27 IN STRESS PERIOD  1
0MAXIMUM HEAD CHANGE FOR EACH ITERATION:
0 HEAD CHANGE LAYER,ROW,COL HEAD CHANGE LAYER,ROW,COL HEAD CHANGE LAYER,ROW,COL HEAD CHANGE LAYER,ROW,COL HEAD CHANGE LAYER,ROW,COL
 ------------------------------------------------------------------------------------------------------------------------------------
   -1.409     (  2,  9,  9)  -.7165     (  2,  7,  3)  -1.425     (  2,  1,  1)  -.2127     (  3,  1,  6)  -.7645     (  3,  1,  1)
    .2486E-01 (  3, 15, 14)  -.4098E-01 (  2,  1,  1)   .5013E-01 (  3, 11,  9)   .1248     (  3,  1,  1)   .1088E-01 (  3,  1,  1)
    .4218E-02 (  3, 10,  1)   .5543E-02 (  3, 10,  4)   .1353E-01 (  3,  6,  9)   .1613E-01 (  3,  1,  3)   .8347E-01 (  3,  3,  1)
   -.2723E-02 (  3, 15, 14)  -.4513E-02 (  3, 13, 12)  -.6222E-02 (  3, 11, 10)  -.1077E-01 (  3,  1,  1)  -.1623E-02 (  3,  1,  1)
   -.4430E-03 (  3, 10,  1)
0
0HEAD/DRAWDOWN PRINTOUT FLAG = 1     TOTAL BUDGET PRINTOUT FLAG = 1     CELL-BY-CELL FLOW TERM FLAG = 0
 REUSING PREVIOUS VALUES OF IOFLG
1                      HEAD IN LAYER  3 AT END OF TIME STEP 27 IN STRESS PERIOD  1
           -----------------------------------------------------------------------

           1       2       3       4       5       6       7       8       9      10      11      12      13      14      15
 ................................................................................................................................
0  1  -135.23 -115.60 -101.94  -90.94  -80.42  -70.13  -60.48  -51.38  -43.04  -36.62  -30.98  -25.50  -19.97  -14.55   -9.52
0  2  -115.60 -109.02  -99.80  -90.21  -80.16  -70.04  -60.44  -51.37  -43.03  -36.61  -30.98  -25.50  -19.97  -14.55   -9.52
0  3  -101.94  -99.80  -94.95  -88.02  -79.29  -69.71  -60.31  -51.32  -43.01  -36.60  -30.98  -25.50  -19.97  -14.55   -9.52
0  4   -90.94  -90.21  -88.02  -83.91  -77.34  -68.91  -59.99  -51.18  -42.96  -36.57  -30.96  -25.49  -19.97  -14.55   -9.52
0  5   -80.42  -80.16  -79.29  -77.34  -73.41  -67.02  -59.17  -50.84  -42.81  -36.50  -30.92  -25.47  -19.95  -14.54   -9.52
0  6   -70.13  -70.04  -69.71  -68.91  -67.02  -63.16  -57.23  -49.96  -42.41  -36.29  -30.81  -25.41  -19.92  -14.53   -9.52
0  7   -60.48  -60.44  -60.31  -59.99  -59.17  -57.23  -53.54  -48.03  -41.48  -35.79  -30.53  -25.26  -19.85  -14.49   -9.50
0  8   -51.38  -51.37  -51.32  -51.18  -50.84  -49.96  -48.03  -44.54  -39.57  -34.70  -29.91  -24.92  -19.67  -14.41   -9.47
0  9   -43.04  -43.03  -43.01  -42.96  -42.81  -42.41  -41.48  -39.57  -36.35  -32.65  -28.66  -24.20  -19.30  -14.23   -9.39
0 10   -36.62  -36.61  -36.60  -36.57  -36.50  -36.29  -35.79  -34.70  -32.65  -30.00  -26.87  -23.09  -18.68  -13.92   -9.26
0 11   -30.98  -30.98  -30.98  -30.96  -30.92  -30.81  -30.53  -29.91  -28.66  -26.87  -24.59  -21.58  -17.79  -13.47   -9.06
0 12   -25.50  -25.50  -25.50  -25.49  -25.47  -25.41  -25.26  -24.92  -24.20  -23.09  -21.58  -19.40  -16.41  -12.71   -8.71
0 13   -19.97  -19.97  -19.97  -19.97  -19.95  -19.92  -19.85  -19.67  -19.30  -18.68  -17.79  -16.41  -14.34  -11.48   -8.11
0 14   -14.55  -14.55  -14.55  -14.55  -14.54  -14.53  -14.49  -14.41  -14.23  -13.92  -13.47  -12.71  -11.48   -9.60   -7.09
0 15    -9.53   -9.52   -9.52   -9.52   -9.52   -9.52   -9.50   -9.47   -9.39   -9.26   -9.06   -8.71   -8.11   -7.09   -5.55
0 16    -5.56   -5.56   -5.56   -5.56   -5.56   -5.56   -5.55   -5.54   -5.51   -5.46   -5.38   -5.23   -4.98   -4.52   -3.75
0 17    -2.91   -2.91   -2.91   -2.91   -2.91   -2.91   -2.91   -2.90   -2.89   -2.87   -2.84   -2.79   -2.69   -2.51   -2.19
0 18    -1.49   -1.49   -1.49   -1.49   -1.49   -1.49   -1.49   -1.49   -1.48   -1.48   -1.46   -1.44   -1.41   -1.33   -1.19
0 19     -.78    -.78    -.78    -.78    -.78    -.78    -.78    -.77    -.77    -.77    -.76    -.76    -.74    -.71    -.65
0 20     -.41    -.41    -.41    -.41    -.41    -.41    -.41    -.41    -.41    -.41    -.40    -.40    -.39    -.38    -.35
0 21     -.22    -.22    -.22    -.22    -.22    -.22    -.22    -.22    -.22    -.21    -.21    -.21    -.21    -.20    -.19
0 22     -.12    -.12    -.12    -.12    -.12    -.12    -.12    -.12    -.12    -.12    -.11    -.11    -.11    -.11    -.10
0 23     -.06    -.06    -.06    -.06    -.06    -.06    -.06    -.06    -.06    -.06    -.06    -.06    -.06    -.06    -.06
0 24     -.04    -.04    -.04    -.04    -.04    -.04    -.04    -.04    -.04    -.04    -.04    -.04    -.04    -.03    -.03
0 25     -.02    -.02    -.02    -.02    -.02    -.02    -.02    -.02    -.02    -.02    -.02    -.02    -.02    -.02    -.02
1                      HEAD IN LAYER  3 AT END OF TIME STEP 27 IN STRESS PERIOD  1
           -----------------------------------------------------------------------

          16      17      18      19      20      21      22      23      24      25
 ........................................................................................
0  1    -5.56   -2.91   -1.49    -.78    -.41    -.22    -.12    -.06    -.04    -.02
0  2    -5.56   -2.91   -1.49    -.78    -.41    -.22    -.12    -.06    -.04    -.02
0  3    -5.56   -2.91   -1.49    -.78    -.41    -.22    -.12    -.06    -.04    -.02
0  4    -5.56   -2.91   -1.49    -.78    -.41    -.22    -.12    -.06    -.04    -.02
0  5    -5.56   -2.91   -1.49    -.78    -.41    -.22    -.12    -.06    -.04    -.02
0  6    -5.56   -2.91   -1.49    -.78    -.41    -.22    -.12    -.06    -.04    -.02
0  7    -5.55   -2.91   -1.49    -.77    -.41    -.22    -.12    -.06    -.04    -.02
0  8    -5.54   -2.90   -1.49    -.77    -.41    -.22    -.12    -.06    -.04    -.02
0  9    -5.51   -2.89   -1.48    -.77    -.41    -.22    -.12    -.06    -.04    -.02
0 10    -5.46   -2.87   -1.48    -.77    -.41    -.21    -.11    -.06    -.04    -.02
0 11    -5.38   -2.84   -1.46    -.76    -.40    -.21    -.11    -.06    -.04    -.02
0 12    -5.23   -2.79   -1.44    -.76    -.40    -.21    -.11    -.06    -.04    -.02
0 13    -4.98   -2.69   -1.41    -.74    -.39    -.21    -.11    -.06    -.04    -.02
0 14    -4.52   -2.51   -1.33    -.71    -.38    -.20    -.11    -.06    -.03    -.02
0 15    -3.75   -2.19   -1.19    -.65    -.35    -.19    -.10    -.06    -.03    -.02
0 16    -2.72   -1.69    -.97    -.55    -.30    -.17    -.09    -.05    -.03    -.02
0 17    -1.69   -1.14    -.69    -.41    -.24    -.13    -.08    -.04    -.03    -.02
0 18     -.97    -.69    -.45    -.28    -.17    -.10    -.06    -.03    -.02    -.01
0 19     -.55    -.41    -.28    -.18    -.11    -.07    -.04    -.03    -.02    -.01
0 20     -.30    -.24    -.17    -.11    -.07    -.05    -.03    -.02    -.01    -.01
0 21     -.17    -.13    -.10    -.07    -.05    -.03    -.02    -.01    -.01    -.01
0 22     -.09    -.08    -.06    -.04    -.03    -.02    -.01    -.01    -.01    -.00
0 23     -.05    -.04    -.03    -.03    -.02    -.01    -.01    -.01    -.00    -.00
0 24     -.03    -.03    -.02    -.02    -.01    -.01    -.01    -.00    -.00    -.00
0 25     -.02    -.02    -.01    -.01    -.01    -.01    -.00    -.00    -.00    -.00
0


                              VOLUMETRIC BUDGET FOR ENTIRE MODEL AT END OF TIME STEP 27 IN STRESS PERIOD  1
                              -----------------------------------------------------------------------------
0                   CUMULATIVE VOLUMES      L**3                                     RATES FOR THIS TIME STEP      L**3/T
                    ------------------                                               ------------------------

                          IN:                                                                    IN:
                          ---                                                                    ---
                            STORAGE =    .24492E+06                                                STORAGE =    .50906    
                      CONSTANT HEAD =    .19268E+06                                          CONSTANT HEAD =    1.0612    
                              WELLS =    .00000                                                      WELLS =    .00000    
0                          TOTAL IN =    .43761E+06                                               TOTAL IN =    1.5702    
0                        OUT:                                                                   OUT:
                         ----                                                                   ----
                            STORAGE =    .00000                                                    STORAGE =    .00000    
                      CONSTANT HEAD =    .00000                                              CONSTANT HEAD =    .00000    
                              WELLS =    .43773E+06                                                  WELLS =    1.5707    
0                         TOTAL OUT =    .43773E+06                                              TOTAL OUT =    1.5707    
0                          IN - OUT =   -123.09                                                   IN - OUT =   -.51546E-03
0               PERCENT DISCREPANCY =                -.03                              PERCENT DISCREPANCY =                -.03



0


          TIME SUMMARY AT END OF TIME STEP 27 IN STRESS PERIOD  1
                               SECONDS        MINUTES         HOURS          DAYS           YEARS
                           ---------------------------------------------------------------------------
      TIME STEP LENGTH         81599.4        1359.99        22.6665        .944438        .258573E-02
    STRESS PERIOD TIME         278675.        4644.59        77.4098        3.22541        .883069E-02
 TOTAL SIMULATION TIME         278675.        4644.59        77.4098        3.22541        .883069E-02
1
    21 ITERATIONS FOR TIME STEP  28 IN STRESS PERIOD  1
0MAXIMUM HEAD CHANGE FOR EACH ITERATION:
0 HEAD CHANGE LAYER,ROW,COL HEAD CHANGE LAYER,ROW,COL HEAD CHANGE LAYER,ROW,COL HEAD CHANGE LAYER,ROW,COL HEAD CHANGE LAYER,ROW,COL
 ------------------------------------------------------------------------------------------------------------------------------------
   -.9689     (  2,  9,  9)  -.4869     (  2,  7,  4)  -.9544     (  2,  1,  1)  -.1701     (  3,  1,  7)  -.6166     (  3,  1,  1)
    .1986E-01 (  3, 15, 14)   .2988E-01 (  3, 14, 13)   .3950E-01 (  3, 12,  8)   .9860E-01 (  3,  1,  1)   .9052E-02 (  3,  1,  1)
    .3393E-02 (  3, 10,  1)   .4511E-02 (  3, 10,  5)   .1113E-01 (  3,  7,  9)   .1336E-01 (  3,  1,  3)   .7062E-01 (  3,  3,  1)
   -.2312E-02 (  3, 15, 14)  -.3762E-02 (  3, 13, 12)  -.5174E-02 (  3, 11, 10)  -.8720E-02 (  3,  1,  1)  -.1406E-02 (  3,  1,  1)
   -.3725E-03 (  3, 10,  1)
0
0HEAD/DRAWDOWN PRINTOUT FLAG = 1     TOTAL BUDGET PRINTOUT FLAG = 1     CELL-BY-CELL FLOW TERM FLAG = 0
 REUSING PREVIOUS VALUES OF IOFLG
1                      HEAD IN LAYER  3 AT END OF TIME STEP 28 IN STRESS PERIOD  1
           -----------------------------------------------------------------------

           1       2       3       4       5       6       7       8       9      10      11      12      13      14      15
 ................................................................................................................................
0  1  -135.85 -116.21 -102.55  -91.56  -81.03  -70.75  -61.09  -51.99  -43.65  -37.21  -31.57  -26.07  -20.51  -15.04   -9.95
0  2  -116.21 -109.63 -100.42  -90.82  -80.77  -70.65  -61.05  -51.98  -43.64  -37.21  -31.57  -26.07  -20.51  -15.04   -9.95
0  3  -102.55 -100.42  -95.56  -88.63  -79.90  -70.32  -60.93  -51.93  -43.62  -37.20  -31.56  -26.07  -20.51  -15.04   -9.95
0  4   -91.56  -90.82  -88.63  -84.52  -77.96  -69.52  -60.60  -51.79  -43.56  -37.17  -31.55  -26.06  -20.51  -15.04   -9.95
0  5   -81.03  -80.77  -79.90  -77.96  -74.02  -67.63  -59.78  -51.45  -43.41  -37.09  -31.51  -26.04  -20.50  -15.04   -9.95
0  6   -70.75  -70.65  -70.32  -69.52  -67.63  -63.77  -57.84  -50.57  -43.02  -36.89  -31.40  -25.98  -20.47  -15.02   -9.94
0  7   -61.09  -61.05  -60.93  -60.60  -59.78  -57.84  -54.15  -48.63  -42.09  -36.39  -31.12  -25.83  -20.39  -14.99   -9.93
0  8   -51.99  -51.98  -51.93  -51.79  -51.45  -50.57  -48.63  -45.14  -40.17  -35.29  -30.50  -25.48  -20.21  -14.90   -9.89
0  9   -43.65  -43.64  -43.62  -43.56  -43.41  -43.02  -42.09  -40.17  -36.95  -33.24  -29.24  -24.76  -19.83  -14.72   -9.81
0 10   -37.21  -37.21  -37.20  -37.17  -37.09  -36.89  -36.39  -35.29  -33.24  -30.58  -27.45  -23.65  -19.22  -14.41   -9.68
0 11   -31.57  -31.57  -31.56  -31.55  -31.51  -31.40  -31.12  -30.50  -29.24  -27.45  -25.16  -22.13  -18.32  -13.95   -9.47
0 12   -26.07  -26.07  -26.07  -26.06  -26.04  -25.98  -25.83  -25.48  -24.76  -23.65  -22.13  -19.93  -16.93  -13.19   -9.12
0 13   -20.51  -20.51  -20.51  -20.51  -20.50  -20.47  -20.39  -20.21  -19.83  -19.22  -18.32  -16.93  -14.83  -11.94   -8.50
0 14   -15.04  -15.04  -15.04  -15.04  -15.04  -15.02  -14.99  -14.90  -14.72  -14.41  -13.95  -13.19  -11.94  -10.02   -7.46
0 15    -9.95   -9.95   -9.95   -9.95   -9.95   -9.94   -9.93   -9.89   -9.81   -9.68   -9.47   -9.12   -8.50   -7.46   -5.89
0 16    -5.89   -5.89   -5.89   -5.89   -5.89   -5.89   -5.88   -5.87   -5.84   -5.79   -5.70   -5.56   -5.30   -4.82   -4.03
0 17    -3.15   -3.15   -3.15   -3.15   -3.15   -3.15   -3.14   -3.14   -3.13   -3.11   -3.08   -3.02   -2.92   -2.73   -2.38
0 18    -1.65   -1.65   -1.65   -1.65   -1.65   -1.65   -1.64   -1.64   -1.64   -1.63   -1.62   -1.60   -1.56   -1.48   -1.33
0 19     -.88    -.88    -.88    -.88    -.88    -.88    -.88    -.87    -.87    -.87    -.86    -.85    -.84    -.80    -.74
0 20     -.47    -.47    -.47    -.47    -.47    -.47    -.47    -.47    -.47    -.47    -.47    -.46    -.45    -.44    -.41
0 21     -.26    -.26    -.26    -.26    -.26    -.26    -.26    -.26    -.26    -.25    -.25    -.25    -.25    -.24    -.23
0 22     -.14    -.14    -.14    -.14    -.14    -.14    -.14    -.14    -.14    -.14    -.14    -.14    -.14    -.13    -.13
0 23     -.08    -.08    -.08    -.08    -.08    -.08    -.08    -.08    -.08    -.08    -.08    -.08    -.08    -.08    -.07
0 24     -.05    -.05    -.05    -.05    -.05    -.05    -.05    -.05    -.05    -.05    -.05    -.05    -.05    -.05    -.04
0 25     -.03    -.03    -.03    -.03    -.03    -.03    -.03    -.03    -.03    -.03    -.03    -.03    -.03    -.03    -.03
1                      HEAD IN LAYER  3 AT END OF TIME STEP 28 IN STRESS PERIOD  1
           -----------------------------------------------------------------------

          16      17      18      19      20      21      22      23      24      25
 ........................................................................................
0  1    -5.89   -3.15   -1.65    -.88    -.47    -.26    -.14    -.08    -.05    -.03
0  2    -5.89   -3.15   -1.65    -.88    -.47    -.26    -.14    -.08    -.05    -.03
0  3    -5.89   -3.15   -1.65    -.88    -.47    -.26    -.14    -.08    -.05    -.03
0  4    -5.89   -3.15   -1.65    -.88    -.47    -.26    -.14    -.08    -.05    -.03
0  5    -5.89   -3.15   -1.65    -.88    -.47    -.26    -.14    -.08    -.05    -.03
0  6    -5.89   -3.15   -1.65    -.88    -.47    -.26    -.14    -.08    -.05    -.03
0  7    -5.88   -3.14   -1.64    -.88    -.47    -.26    -.14    -.08    -.05    -.03
0  8    -5.87   -3.14   -1.64    -.87    -.47    -.26    -.14    -.08    -.05    -.03
0  9    -5.84   -3.13   -1.64    -.87    -.47    -.26    -.14    -.08    -.05    -.03
0 10    -5.79   -3.11   -1.63    -.87    -.47    -.25    -.14    -.08    -.05    -.03
0 11    -5.70   -3.08   -1.62    -.86    -.47    -.25    -.14    -.08    -.05    -.03
0 12    -5.56   -3.02   -1.60    -.85    -.46    -.25    -.14    -.08    -.05    -.03
0 13    -5.30   -2.92   -1.56    -.84    -.45    -.25    -.14    -.08    -.05    -.03
0 14    -4.82   -2.73   -1.48    -.80    -.44    -.24    -.13    -.08    -.05    -.03
0 15    -4.03   -2.38   -1.33    -.74    -.41    -.23    -.13    -.07    -.04    -.03
0 16    -2.95   -1.86   -1.09    -.63    -.36    -.20    -.11    -.07    -.04    -.03
0 17    -1.86   -1.27    -.79    -.48    -.28    -.16    -.09    -.06    -.03    -.02
0 18    -1.09    -.79    -.52    -.33    -.20    -.12    -.07    -.04    -.03    -.02
0 19     -.63    -.48    -.33    -.22    -.14    -.09    -.05    -.03    -.02    -.02
0 20     -.36    -.28    -.20    -.14    -.09    -.06    -.04    -.02    -.02    -.01
0 21     -.20    -.16    -.12    -.09    -.06    -.04    -.03    -.02    -.01    -.01
0 22     -.11    -.09    -.07    -.05    -.04    -.03    -.02    -.01    -.01    -.01
0 23     -.07    -.06    -.04    -.03    -.02    -.02    -.01    -.01    -.01    -.00
0 24     -.04    -.03    -.03    -.02    -.02    -.01    -.01    -.01    -.00    -.00
0 25     -.03    -.02    -.02    -.02    -.01    -.01    -.01    -.00    -.00    -.00
0


                              VOLUMETRIC BUDGET FOR ENTIRE MODEL AT END OF TIME STEP 28 IN STRESS PERIOD  1
                              -----------------------------------------------------------------------------
0                   CUMULATIVE VOLUMES      L**3                                     RATES FOR THIS TIME STEP      L**3/T
                    ------------------                                               ------------------------

                          IN:                                                                    IN:
                          ---                                                                    ---
                            STORAGE =    .28305E+06                                                STORAGE =    .33040    
                      CONSTANT HEAD =    .33574E+06                                          CONSTANT HEAD =    1.2399    
                              WELLS =    .00000                                                      WELLS =    .00000    
0                          TOTAL IN =    .61879E+06                                               TOTAL IN =    1.5703    
0                        OUT:                                                                   OUT:
                         ----                                                                   ----
                            STORAGE =    .00000                                                    STORAGE =    .00000    
                      CONSTANT HEAD =    .00000                                              CONSTANT HEAD =    .00000    
                              WELLS =    .61896E+06                                                  WELLS =    1.5707    
0                         TOTAL OUT =    .61896E+06                                              TOTAL OUT =    1.5707    
0                          IN - OUT =   -174.31                                                   IN - OUT =   -.44417E-03
0               PERCENT DISCREPANCY =                -.03                              PERCENT DISCREPANCY =                -.03



0


          TIME SUMMARY AT END OF TIME STEP 28 IN STRESS PERIOD  1
                               SECONDS        MINUTES         HOURS          DAYS           YEARS
                           ---------------------------------------------------------------------------
      TIME STEP LENGTH         115382.        1923.03        32.0504        1.33544        .365622E-02
    STRESS PERIOD TIME         394057.        6567.62        109.460        4.56084        .124869E-01
 TOTAL SIMULATION TIME         394057.        6567.62        109.460        4.56084        .124869E-01
1
    21 ITERATIONS FOR TIME STEP  29 IN STRESS PERIOD  1
0MAXIMUM HEAD CHANGE FOR EACH ITERATION:
0 HEAD CHANGE LAYER,ROW,COL HEAD CHANGE LAYER,ROW,COL HEAD CHANGE LAYER,ROW,COL HEAD CHANGE LAYER,ROW,COL HEAD CHANGE LAYER,ROW,COL
 ------------------------------------------------------------------------------------------------------------------------------------
   -.5622     (  2,  9,  9)  -.2795     (  2,  7,  5)  -.5413     (  2,  1,  1)  -.1177     (  3,  1,  7)  -.4274     (  3,  1,  1)
    .1356E-01 (  3, 15, 14)   .2050E-01 (  3, 14, 13)   .2688E-01 (  3, 12,  9)   .6743E-01 (  3,  1,  1)   .6470E-02 (  3,  1,  1)
    .2350E-02 (  3, 10,  1)   .3152E-02 (  3, 10,  5)   .7851E-02 (  3,  7,  9)   .9504E-02 (  3,  1,  3)   .5113E-01 (  3,  3,  1)
   -.1675E-02 (  3, 15, 14)  -.2715E-02 (  3, 14, 13)  -.3681E-02 (  3, 11, 10)  -.6061E-02 (  3,  1,  1)  -.1042E-02 (  3,  1,  1)
   -.2677E-03 (  3, 10,  1)
0
0HEAD/DRAWDOWN PRINTOUT FLAG = 1     TOTAL BUDGET PRINTOUT FLAG = 1     CELL-BY-CELL FLOW TERM FLAG = 0
 REUSING PREVIOUS VALUES OF IOFLG
1                      HEAD IN LAYER  3 AT END OF TIME STEP 29 IN STRESS PERIOD  1
           -----------------------------------------------------------------------

           1       2       3       4       5       6       7       8       9      10      11      12      13      14      15
 ................................................................................................................................
0  1  -136.27 -116.63 -102.97  -91.98  -81.45  -71.17  -61.51  -52.41  -44.06  -37.62  -31.98  -26.47  -20.89  -15.39  -10.26
0  2  -116.63 -110.05 -100.84  -91.24  -81.19  -71.07  -61.47  -52.40  -44.05  -37.62  -31.97  -26.47  -20.89  -15.39  -10.26
0  3  -102.97 -100.84  -95.98  -89.05  -80.32  -70.74  -61.34  -52.34  -44.03  -37.61  -31.97  -26.46  -20.89  -15.39  -10.26
0  4   -91.98  -91.24  -89.05  -84.94  -78.38  -69.94  -61.02  -52.21  -43.98  -37.58  -31.95  -26.45  -20.88  -15.39  -10.26
0  5   -81.45  -81.19  -80.32  -78.38  -74.44  -68.05  -60.20  -51.87  -43.83  -37.50  -31.91  -26.43  -20.87  -15.39  -10.25
0  6   -71.17  -71.07  -70.74  -69.94  -68.05  -64.19  -58.26  -50.98  -43.43  -37.30  -31.80  -26.37  -20.84  -15.37  -10.25
0  7   -61.51  -61.47  -61.34  -61.02  -60.20  -58.26  -54.57  -49.05  -42.50  -36.80  -31.52  -26.22  -20.77  -15.34  -10.23
0  8   -52.41  -52.40  -52.34  -52.21  -51.87  -50.98  -49.05  -45.56  -40.59  -35.70  -30.90  -25.88  -20.59  -15.25  -10.20
0  9   -44.06  -44.05  -44.03  -43.98  -43.83  -43.43  -42.50  -40.59  -37.36  -33.65  -29.64  -25.15  -20.21  -15.07  -10.12
0 10   -37.62  -37.62  -37.61  -37.58  -37.50  -37.30  -36.80  -35.70  -33.65  -30.99  -27.85  -24.04  -19.59  -14.76   -9.98
0 11   -31.98  -31.97  -31.97  -31.95  -31.91  -31.80  -31.52  -30.90  -29.64  -27.85  -25.55  -22.51  -18.69  -14.29   -9.77
0 12   -26.47  -26.47  -26.46  -26.45  -26.43  -26.37  -26.22  -25.88  -25.15  -24.04  -22.51  -20.31  -17.29  -13.52   -9.41
0 13   -20.89  -20.89  -20.89  -20.89  -20.87  -20.84  -20.77  -20.59  -20.21  -19.59  -18.69  -17.29  -15.18  -12.27   -8.79
0 14   -15.39  -15.39  -15.39  -15.39  -15.39  -15.37  -15.34  -15.25  -15.07  -14.76  -14.29  -13.52  -12.27  -10.33   -7.74
0 15   -10.26  -10.26  -10.26  -10.26  -10.25  -10.25  -10.23  -10.20  -10.12   -9.98   -9.77   -9.41   -8.79   -7.74   -6.14
0 16    -6.14   -6.14   -6.14   -6.14   -6.14   -6.14   -6.13   -6.12   -6.09   -6.03   -5.95   -5.80   -5.53   -5.05   -4.23
0 17    -3.33   -3.33   -3.33   -3.33   -3.33   -3.33   -3.32   -3.32   -3.31   -3.29   -3.25   -3.20   -3.09   -2.89   -2.54
0 18    -1.77   -1.77   -1.77   -1.77   -1.77   -1.77   -1.77   -1.77   -1.76   -1.75   -1.74   -1.72   -1.67   -1.59   -1.44
0 19     -.96    -.96    -.96    -.96    -.96    -.96    -.96    -.96    -.96    -.95    -.95    -.94    -.92    -.88    -.81
0 20     -.53    -.53    -.53    -.53    -.53    -.53    -.53    -.53    -.52    -.52    -.52    -.52    -.51    -.49    -.46
0 21     -.29    -.29    -.29    -.29    -.29    -.29    -.29    -.29    -.29    -.29    -.29    -.29    -.28    -.27    -.26
0 22     -.16    -.16    -.16    -.16    -.16    -.16    -.16    -.16    -.16    -.16    -.16    -.16    -.16    -.16    -.15
0 23     -.09    -.09    -.09    -.09    -.09    -.09    -.09    -.09    -.09    -.09    -.09    -.09    -.09    -.09    -.09
0 24     -.06    -.06    -.06    -.06    -.06    -.06    -.06    -.06    -.06    -.06    -.06    -.06    -.06    -.06    -.05
0 25     -.04    -.04    -.04    -.04    -.04    -.04    -.04    -.04    -.04    -.04    -.04    -.04    -.04    -.04    -.04
1                      HEAD IN LAYER  3 AT END OF TIME STEP 29 IN STRESS PERIOD  1
           -----------------------------------------------------------------------

          16      17      18      19      20      21      22      23      24      25
 ........................................................................................
0  1    -6.14   -3.33   -1.77    -.96    -.53    -.29    -.16    -.09    -.06    -.04
0  2    -6.14   -3.33   -1.77    -.96    -.53    -.29    -.16    -.09    -.06    -.04
0  3    -6.14   -3.33   -1.77    -.96    -.53    -.29    -.16    -.09    -.06    -.04
0  4    -6.14   -3.33   -1.77    -.96    -.53    -.29    -.16    -.09    -.06    -.04
0  5    -6.14   -3.33   -1.77    -.96    -.53    -.29    -.16    -.09    -.06    -.04
0  6    -6.14   -3.33   -1.77    -.96    -.53    -.29    -.16    -.09    -.06    -.04
0  7    -6.13   -3.32   -1.77    -.96    -.53    -.29    -.16    -.09    -.06    -.04
0  8    -6.12   -3.32   -1.77    -.96    -.53    -.29    -.16    -.09    -.06    -.04
0  9    -6.08   -3.31   -1.76    -.96    -.52    -.29    -.16    -.09    -.06    -.04
0 10    -6.03   -3.29   -1.75    -.95    -.52    -.29    -.16    -.09    -.06    -.04
0 11    -5.95   -3.25   -1.74    -.95    -.52    -.29    -.16    -.09    -.06    -.04
0 12    -5.80   -3.20   -1.72    -.94    -.52    -.29    -.16    -.09    -.06    -.04
0 13    -5.53   -3.09   -1.67    -.92    -.51    -.28    -.16    -.09    -.06    -.04
0 14    -5.05   -2.89   -1.59    -.88    -.49    -.27    -.16    -.09    -.06    -.04
0 15    -4.23   -2.54   -1.44    -.81    -.46    -.26    -.15    -.09    -.05    -.04
0 16    -3.12   -2.00   -1.19    -.69    -.40    -.23    -.13    -.08    -.05    -.03
0 17    -2.00   -1.37    -.87    -.53    -.32    -.19    -.11    -.07    -.04    -.03
0 18    -1.19    -.87    -.58    -.37    -.23    -.14    -.09    -.05    -.03    -.03
0 19     -.69    -.53    -.37    -.25    -.16    -.10    -.06    -.04    -.03    -.02
0 20     -.40    -.32    -.23    -.16    -.11    -.07    -.05    -.03    -.02    -.02
0 21     -.23    -.19    -.14    -.10    -.07    -.05    -.03    -.02    -.02    -.01
0 22     -.13    -.11    -.09    -.06    -.05    -.03    -.02    -.02    -.01    -.01
0 23     -.08    -.07    -.05    -.04    -.03    -.02    -.02    -.01    -.01    -.01
0 24     -.05    -.04    -.03    -.03    -.02    -.02    -.01    -.01    -.01    -.00
0 25     -.03    -.03    -.03    -.02    -.02    -.01    -.01    -.01    -.00    -.00
0


                              VOLUMETRIC BUDGET FOR ENTIRE MODEL AT END OF TIME STEP 29 IN STRESS PERIOD  1
                              -----------------------------------------------------------------------------
0                   CUMULATIVE VOLUMES      L**3                                     RATES FOR THIS TIME STEP      L**3/T
                    ------------------                                               ------------------------

                          IN:                                                                    IN:
                          ---                                                                    ---
                            STORAGE =    .31360E+06                                                STORAGE =    .18728    
                      CONSTANT HEAD =    .56140E+06                                          CONSTANT HEAD =    1.3832    
                              WELLS =    .00000                                                      WELLS =    .00000    
0                          TOTAL IN =    .87500E+06                                               TOTAL IN =    1.5704    
0                        OUT:                                                                   OUT:
                         ----                                                                   ----
                            STORAGE =    .00000                                                    STORAGE =    .00000    
                      CONSTANT HEAD =    .00000                                              CONSTANT HEAD =    .00000    
                              WELLS =    .87523E+06                                                  WELLS =    1.5707    
0                         TOTAL OUT =    .87523E+06                                              TOTAL OUT =    1.5707    
0                          IN - OUT =   -227.31                                                   IN - OUT =   -.32473E-03
0               PERCENT DISCREPANCY =                -.03                              PERCENT DISCREPANCY =                -.02



0


          TIME SUMMARY AT END OF TIME STEP 29 IN STRESS PERIOD  1
                               SECONDS        MINUTES         HOURS          DAYS           YEARS
                           ---------------------------------------------------------------------------
      TIME STEP LENGTH         163150.        2719.16        45.3193        1.88831        .516990E-02
    STRESS PERIOD TIME         557207.        9286.78        154.780        6.44915        .176568E-01
 TOTAL SIMULATION TIME         557207.        9286.78        154.780        6.44915        .176568E-01
1
    20 ITERATIONS FOR TIME STEP  30 IN STRESS PERIOD  1
0MAXIMUM HEAD CHANGE FOR EACH ITERATION:
0 HEAD CHANGE LAYER,ROW,COL HEAD CHANGE LAYER,ROW,COL HEAD CHANGE LAYER,ROW,COL HEAD CHANGE LAYER,ROW,COL HEAD CHANGE LAYER,ROW,COL
 ------------------------------------------------------------------------------------------------------------------------------------
   -.2704     (  2,  9,  9)  -.1332     (  2,  7,  5)  -.2556     (  2,  1,  1)  -.6850E-01 (  3,  1,  7)  -.2485     (  3,  1,  1)
    .7746E-02 (  3, 15, 14)   .1178E-01 (  3, 14, 13)   .1539E-01 (  3, 12,  9)   .3888E-01 (  3,  1,  1)   .3879E-02 (  3,  1,  1)
    .1367E-02 (  3, 10,  1)   .1847E-02 (  3, 10,  5)   .4648E-02 (  3,  7, 10)   .5664E-02 (  3,  1,  3)   .3093E-01 (  3,  3,  1)
   -.1011E-02 (  3, 15, 14)  -.1637E-02 (  3, 14, 13)  -.2188E-02 (  3, 11, 10)  -.3530E-02 (  3,  1,  1)  -.6447E-03 (  3,  1,  1)
0
0HEAD/DRAWDOWN PRINTOUT FLAG = 1     TOTAL BUDGET PRINTOUT FLAG = 1     CELL-BY-CELL FLOW TERM FLAG = 0
 REUSING PREVIOUS VALUES OF IOFLG
1                      HEAD IN LAYER  3 AT END OF TIME STEP 30 IN STRESS PERIOD  1
           -----------------------------------------------------------------------

           1       2       3       4       5       6       7       8       9      10      11      12      13      14      15
 ................................................................................................................................
0  1  -136.51 -116.87 -103.21  -92.22  -81.69  -71.41  -61.75  -52.65  -44.30  -37.86  -32.21  -26.70  -21.11  -15.60  -10.44
0  2  -116.87 -110.29 -101.08  -91.48  -81.43  -71.31  -61.71  -52.64  -44.29  -37.86  -32.21  -26.70  -21.11  -15.60  -10.44
0  3  -103.21 -101.08  -96.23  -89.29  -80.56  -70.98  -61.59  -52.58  -44.27  -37.85  -32.20  -26.69  -21.11  -15.60  -10.44
0  4   -92.22  -91.48  -89.29  -85.19  -78.62  -70.18  -61.26  -52.45  -44.22  -37.82  -32.19  -26.68  -21.11  -15.60  -10.44
0  5   -81.69  -81.43  -80.56  -78.62  -74.68  -68.29  -60.44  -52.11  -44.07  -37.74  -32.15  -26.66  -21.09  -15.59  -10.44
0  6   -71.41  -71.31  -70.98  -70.18  -68.29  -64.43  -58.50  -51.22  -43.67  -37.54  -32.03  -26.60  -21.06  -15.58  -10.43
0  7   -61.75  -61.71  -61.59  -61.26  -60.44  -58.50  -54.81  -49.29  -42.74  -37.04  -31.76  -26.45  -20.99  -15.54  -10.42
0  8   -52.65  -52.64  -52.58  -52.45  -52.11  -51.22  -49.29  -45.80  -40.83  -35.94  -31.13  -26.11  -20.81  -15.46  -10.38
0  9   -44.30  -44.29  -44.27  -44.22  -44.07  -43.67  -42.74  -40.83  -37.59  -33.88  -29.88  -25.38  -20.43  -15.27  -10.30
0 10   -37.86  -37.86  -37.85  -37.82  -37.74  -37.54  -37.04  -35.94  -33.88  -31.22  -28.08  -24.27  -19.81  -14.96  -10.16
0 11   -32.21  -32.21  -32.20  -32.19  -32.15  -32.03  -31.76  -31.13  -29.88  -28.08  -25.78  -22.74  -18.90  -14.50   -9.95
0 12   -26.70  -26.70  -26.69  -26.68  -26.66  -26.60  -26.45  -26.11  -25.38  -24.27  -22.74  -20.53  -17.50  -13.72   -9.59
0 13   -21.11  -21.11  -21.11  -21.11  -21.09  -21.06  -20.99  -20.81  -20.43  -19.81  -18.91  -17.50  -15.38  -12.46   -8.97
0 14   -15.60  -15.60  -15.60  -15.60  -15.59  -15.58  -15.54  -15.46  -15.27  -14.96  -14.50  -13.72  -12.46  -10.52   -7.90
0 15   -10.44  -10.44  -10.44  -10.44  -10.44  -10.43  -10.42  -10.38  -10.30  -10.16   -9.95   -9.59   -8.97   -7.90   -6.29
0 16    -6.29   -6.29   -6.29   -6.29   -6.29   -6.29   -6.28   -6.27   -6.24   -6.18   -6.10   -5.95   -5.68   -5.19   -4.36
0 17    -3.44   -3.44   -3.44   -3.44   -3.44   -3.44   -3.44   -3.43   -3.42   -3.40   -3.37   -3.31   -3.20   -3.00   -2.64
0 18    -1.85   -1.85   -1.85   -1.85   -1.85   -1.85   -1.85   -1.85   -1.84   -1.84   -1.82   -1.80   -1.75   -1.67   -1.51
0 19    -1.02   -1.02   -1.02   -1.02   -1.02   -1.02   -1.02   -1.01   -1.01   -1.01   -1.00    -.99    -.97    -.94    -.86
0 20     -.57    -.57    -.57    -.57    -.57    -.57    -.57    -.56    -.56    -.56    -.56    -.55    -.55    -.53    -.49
0 21     -.32    -.32    -.32    -.32    -.32    -.32    -.32    -.32    -.32    -.32    -.32    -.31    -.31    -.30    -.28
0 22     -.18    -.18    -.18    -.18    -.18    -.18    -.18    -.18    -.18    -.18    -.18    -.18    -.18    -.17    -.16
0 23     -.11    -.11    -.11    -.11    -.11    -.11    -.11    -.11    -.11    -.11    -.11    -.11    -.10    -.10    -.10
0 24     -.07    -.07    -.07    -.07    -.07    -.07    -.07    -.07    -.07    -.07    -.07    -.07    -.07    -.06    -.06
0 25     -.05    -.05    -.05    -.05    -.05    -.05    -.05    -.05    -.05    -.05    -.05    -.05    -.05    -.05    -.04
1                      HEAD IN LAYER  3 AT END OF TIME STEP 30 IN STRESS PERIOD  1
           -----------------------------------------------------------------------

          16      17      18      19      20      21      22      23      24      25
 ........................................................................................
0  1    -6.29   -3.44   -1.85   -1.02    -.57    -.32    -.18    -.11    -.07    -.05
0  2    -6.29   -3.44   -1.85   -1.02    -.57    -.32    -.18    -.11    -.07    -.05
0  3    -6.29   -3.44   -1.85   -1.02    -.57    -.32    -.18    -.11    -.07    -.05
0  4    -6.29   -3.44   -1.85   -1.02    -.57    -.32    -.18    -.11    -.07    -.05
0  5    -6.29   -3.44   -1.85   -1.02    -.57    -.32    -.18    -.11    -.07    -.05
0  6    -6.29   -3.44   -1.85   -1.02    -.57    -.32    -.18    -.11    -.07    -.05
0  7    -6.28   -3.44   -1.85   -1.02    -.57    -.32    -.18    -.11    -.07    -.05
0  8    -6.27   -3.43   -1.85   -1.01    -.56    -.32    -.18    -.11    -.07    -.05
0  9    -6.24   -3.42   -1.84   -1.01    -.56    -.32    -.18    -.11    -.07    -.05
0 10    -6.18   -3.40   -1.83   -1.01    -.56    -.32    -.18    -.11    -.07    -.05
0 11    -6.10   -3.37   -1.82   -1.00    -.56    -.32    -.18    -.11    -.07    -.05
0 12    -5.95   -3.31   -1.80    -.99    -.55    -.31    -.18    -.11    -.07    -.05
0 13    -5.68   -3.20   -1.75    -.97    -.55    -.31    -.18    -.10    -.07    -.05
0 14    -5.19   -3.00   -1.67    -.94    -.53    -.30    -.17    -.10    -.06    -.05
0 15    -4.36   -2.64   -1.51    -.86    -.49    -.28    -.16    -.10    -.06    -.04
0 16    -3.24   -2.09   -1.25    -.74    -.43    -.25    -.15    -.09    -.06    -.04
0 17    -2.09   -1.45    -.92    -.57    -.35    -.21    -.13    -.08    -.05    -.04
0 18    -1.25    -.92    -.62    -.40    -.26    -.16    -.10    -.06    -.04    -.03
0 19     -.74    -.57    -.40    -.27    -.18    -.12    -.07    -.05    -.03    -.02
0 20     -.43    -.35    -.26    -.18    -.12    -.08    -.05    -.04    -.02    -.02
0 21     -.25    -.21    -.16    -.12    -.08    -.06    -.04    -.03    -.02    -.01
0 22     -.15    -.13    -.10    -.07    -.05    -.04    -.03    -.02    -.01    -.01
0 23     -.09    -.08    -.06    -.05    -.04    -.03    -.02    -.01    -.01    -.01
0 24     -.06    -.05    -.04    -.03    -.02    -.02    -.01    -.01    -.01    -.01
0 25     -.04    -.04    -.03    -.02    -.02    -.01    -.01    -.01    -.01    -.01
0


                              VOLUMETRIC BUDGET FOR ENTIRE MODEL AT END OF TIME STEP 30 IN STRESS PERIOD  1
                              -----------------------------------------------------------------------------
0                   CUMULATIVE VOLUMES      L**3                                     RATES FOR THIS TIME STEP      L**3/T
                    ------------------                                               ------------------------

                          IN:                                                                    IN:
                          ---                                                                    ---
                            STORAGE =    .33437E+06                                                STORAGE =    .90036E-01
                      CONSTANT HEAD =    .90295E+06                                          CONSTANT HEAD =    1.4805    
                              WELLS =    .00000                                                      WELLS =    .00000    
0                          TOTAL IN =    .12373E+07                                               TOTAL IN =    1.5706    
0                        OUT:                                                                   OUT:
                         ----                                                                   ----
                            STORAGE =    .00000                                                    STORAGE =    .00000    
                      CONSTANT HEAD =    .00000                                              CONSTANT HEAD =    .00000    
                              WELLS =    .12376E+07                                                  WELLS =    1.5707    
0                         TOTAL OUT =    .12376E+07                                              TOTAL OUT =    1.5707    
0                          IN - OUT =   -270.00                                                   IN - OUT =   -.18561E-03
0               PERCENT DISCREPANCY =                -.02                              PERCENT DISCREPANCY =                -.01



0


          TIME SUMMARY AT END OF TIME STEP 30 IN STRESS PERIOD  1
                               SECONDS        MINUTES         HOURS          DAYS           YEARS
                           ---------------------------------------------------------------------------
      TIME STEP LENGTH         230694.        3844.89        64.0815        2.67006        .731024E-02
    STRESS PERIOD TIME         787900.        13131.7        218.861        9.11921        .249670E-01
 TOTAL SIMULATION TIME         787900.        13131.7        218.861        9.11921        .249670E-01
1
