1                    U.S. GEOLOGICAL SURVEY MODULAR FINITE-DIFFERENCE GROUND-WATER MODEL
0Third type boundary condition verification problem                              2/6/91   PFA                                    
    1 LAYERS         7 ROWS         7 COLUMNS
   1 STRESS PERIOD(S) IN SIMULATION
 MODEL TIME UNIT IS DAYS
0I/O UNITS:
 ELEMENT OF IUNIT:  1  2  3  4  5  6  7  8  9 10 11 12 13 14 15 16 17 18 19 20 21 22 23 24
         I/O UNIT: 11 12  0 14  0  0  0  0 19  0  0 22  0  0  0  0  0  0  0  0  0  0  0  0
0BAS1 -- BASIC MODEL PACKAGE, VERSION 1, 9/1/87 INPUT READ FROM UNIT  1
 ARRAYS RHS AND BUFF WILL SHARE MEMORY.
 START HEAD WILL NOT BE SAVED -- DRAWDOWN CANNOT BE CALCULATED
      410 ELEMENTS IN X ARRAY ARE USED BY BAS
      410 ELEMENTS OF X ARRAY USED OUT OF   80000
0BCF1 -- BLOCK-CENTERED FLOW PACKAGE, VERSION 1, 9/1/87 INPUT READ FROM UNIT 11
 TRANSIENT SIMULATION
      LAYER  AQUIFER TYPE
      -------------------
         1         1
      148 ELEMENTS IN X ARRAY ARE USED BY BCF
      558 ELEMENTS OF X ARRAY USED OUT OF   80000
0WEL1 -- WELL PACKAGE, VERSION 1, 9/1/87 INPUT READ FROM 12
 MAXIMUM OF    1 WELLS
        4 ELEMENTS IN X ARRAY ARE USED FOR WELLS
      562 ELEMENTS OF X ARRAY USED OUT OF   80000
0RIV1 -- RIVER PACKAGE, VERSION 1, 9/1/87 INPUT READ FROM UNIT 14
 MAXIMUM OF    7 RIVER NODES
 CELL-BY-CELL FLOWS WILL BE PRINTED
       42 ELEMENTS IN X ARRAY ARE USED FOR RIVERS
      604 ELEMENTS OF X ARRAY USED OUT OF   80000
0SIP1 -- STRONGLY IMPLICIT PROCEDURE SOLUTION PACKAGE, VERSION 1, 9/1/87 INPUT READ FROM UNIT 19
 MAXIMUM OF  50 ITERATIONS ALLOWED FOR CLOSURE
  5 ITERATION PARAMETERS
      401 ELEMENTS IN X ARRAY ARE USED BY SIP
     1005 ELEMENTS OF X ARRAY USED OUT OF   80000
1Third type boundary condition verification problem                              2/6/91   PFA                                    
0                                                              BOUNDARY ARRAY =              1 FOR LAYER  1
0AQUIFER HEAD WILL BE SET TO  999.00     AT ALL NO-FLOW NODES (IBOUND=0).
0                                                                INITIAL HEAD =   10.00000     FOR LAYER  1
0HEAD PRINT FORMAT IS FORMAT NUMBER   5    DRAWDOWN PRINT FORMAT IS FORMAT NUMBER   0
0HEADS WILL BE SAVED ON UNIT  0    DRAWDOWNS WILL BE SAVED ON UNIT  0
0OUTPUT CONTROL IS SPECIFIED EVERY TIME STEP
0                                                    COLUMN TO ROW ANISOTROPY =   1.000000    
0                                                                        DELR =   100.0000    
0                                                                        DELC =   100.0000    
0                                                        PRIMARY STORAGE COEF =   .1000000     FOR LAYER  1
0                                                       HYD. COND. ALONG ROWS =   10.00000     FOR LAYER  1
0                                                                      BOTTOM =  -50.00000     FOR LAYER  1
0


                                                         SOLUTION BY THE STRONGLY IMPLICIT PROCEDURE
                                                         -------------------------------------------
0                                               MAXIMUM ITERATIONS ALLOWED FOR CLOSURE =       50
                                                                ACCELERATION PARAMETER =     1.0000    
                                                     HEAD CHANGE CRITERION FOR CLOSURE =     .10000E-02
                                                     SIP HEAD CHANGE PRINTOUT INTERVAL =        1
0                                                    CALCULATE ITERATION PARAMETERS FROM MODEL CALCULATED WSEED
1                                                   STRESS PERIOD NO.   1, LENGTH =   365.0000    
                                                    ----------------------------------------------

                                                    NUMBER OF TIME STEPS =    20

                                                     MULTIPLIER FOR DELT =     1.200

                                                  INITIAL TIME STEP SIZE =   1.955133    
0             1 WELLS
                                                LAYER    ROW    COL    STRESS RATE   WELL NO.
                                                ---------------------------------------------
                                                  1       1      1     -2500.0           1
0

     7 RIVER REACHES
0               LAYER     ROW     COL     STAGE     CONDUCTANCE   BOTTOM ELEVATION   RIVER REACH
                --------------------------------------------------------------------------------
                   1        1       4    .0000         200.0             -2.000             1
                   1        2       4    .0000         200.0             -2.000             2
                   1        3       4    .0000         200.0             -2.000             3
                   1        4       4    .0000         200.0             -2.000             4
                   1        5       4    .0000         200.0             -2.000             5
                   1        6       4    .0000         200.0             -2.000             6
                   1        7       4    .0000         200.0             -2.000             7
0AVERAGE SEED =  .05035512
 MINIMUM SEED =  .05035512
0
    5 ITERATION PARAMETERS CALCULATED FROM AVERAGE SEED:

             .0000000E+00   .5262918E+00   .7756006E+00   .8937001E+00   .9496449E+00
0
     5 ITERATIONS FOR TIME STEP   1 IN STRESS PERIOD  1
0MAXIMUM HEAD CHANGE FOR EACH ITERATION:
0 HEAD CHANGE LAYER,ROW,COL HEAD CHANGE LAYER,ROW,COL HEAD CHANGE LAYER,ROW,COL HEAD CHANGE LAYER,ROW,COL HEAD CHANGE LAYER,ROW,COL
 ------------------------------------------------------------------------------------------------------------------------------------
   -1.903     (  1,  1,  1)  -.2184     (  1,  2,  3)  -.4086E-01 (  1,  3,  3)  -.4606E-02 (  1,  4,  2)  -.2889E-03 (  1,  1,  1)
0
0HEAD/DRAWDOWN PRINTOUT FLAG = 1     TOTAL BUDGET PRINTOUT FLAG = 1     CELL-BY-CELL FLOW TERM FLAG = 1
0OUTPUT FLAGS FOR ALL LAYERS ARE THE SAME:
   HEAD    DRAWDOWN  HEAD  DRAWDOWN
 PRINTOUT  PRINTOUT  SAVE    SAVE
 ----------------------------------
     1         0       0       0
0   RIVER LEAKAGE   PERIOD  1   STEP  1   REACH   1   LAYER  1   ROW   1   COL   4   RATE  -1702.071    
0   RIVER LEAKAGE   PERIOD  1   STEP  1   REACH   2   LAYER  1   ROW   2   COL   4   RATE  -1706.339    
0   RIVER LEAKAGE   PERIOD  1   STEP  1   REACH   3   LAYER  1   ROW   3   COL   4   RATE  -1710.515    
0   RIVER LEAKAGE   PERIOD  1   STEP  1   REACH   4   LAYER  1   ROW   4   COL   4   RATE  -1713.213    
0   RIVER LEAKAGE   PERIOD  1   STEP  1   REACH   5   LAYER  1   ROW   5   COL   4   RATE  -1714.657    
0   RIVER LEAKAGE   PERIOD  1   STEP  1   REACH   6   LAYER  1   ROW   6   COL   4   RATE  -1715.337    
0   RIVER LEAKAGE   PERIOD  1   STEP  1   REACH   7   LAYER  1   ROW   7   COL   4   RATE  -1715.599    
1                      HEAD IN LAYER  1 AT END OF TIME STEP  1 IN STRESS PERIOD  1
           -----------------------------------------------------------------------

           1       2       3       4       5       6       7
 ................................................................
0  1    7.940   9.118   9.202   8.510   9.393   9.740   9.860
0  2    9.233   9.435   9.285   8.532   9.399   9.742   9.861
0  3    9.646   9.615   9.351   8.553   9.406   9.744   9.862
0  4    9.787   9.695   9.388   8.566   9.412   9.746   9.863
0  5    9.836   9.728   9.405   8.573   9.415   9.748   9.864
0  6    9.854   9.740   9.413   8.577   9.417   9.748   9.864
0  7    9.859   9.745   9.415   8.578   9.417   9.749   9.864
0


                              VOLUMETRIC BUDGET FOR ENTIRE MODEL AT END OF TIME STEP  1 IN STRESS PERIOD  1
                              -----------------------------------------------------------------------------
0                   CUMULATIVE VOLUMES      L**3                                     RATES FOR THIS TIME STEP      L**3/T
                    ------------------                                               ------------------------

                          IN:                                                                    IN:
                          ---                                                                    ---
                            STORAGE =    28306.                                                    STORAGE =    14478.    
                      CONSTANT HEAD =    .00000                                              CONSTANT HEAD =    .00000    
                              WELLS =    .00000                                                      WELLS =    .00000    
                      RIVER LEAKAGE =    .00000                                              RIVER LEAKAGE =    .00000    
0                          TOTAL IN =    28306.                                                   TOTAL IN =    14478.    
0                        OUT:                                                                   OUT:
                         ----                                                                   ----
                            STORAGE =    .00000                                                    STORAGE =    .00000    
                      CONSTANT HEAD =    .00000                                              CONSTANT HEAD =    .00000    
                              WELLS =    4887.8                                                      WELLS =    2500.0    
                      RIVER LEAKAGE =    23418.                                              RIVER LEAKAGE =    11978.    
0                         TOTAL OUT =    28306.                                                  TOTAL OUT =    14478.    
0                          IN - OUT =    .42969E-01                                               IN - OUT =    .22461E-01
0               PERCENT DISCREPANCY =                 .00                              PERCENT DISCREPANCY =                 .00



0


          TIME SUMMARY AT END OF TIME STEP  1 IN STRESS PERIOD  1
                               SECONDS        MINUTES         HOURS          DAYS           YEARS
                           ---------------------------------------------------------------------------
      TIME STEP LENGTH         168923.        2815.39        46.9232        1.95513        .535286E-02
    STRESS PERIOD TIME         168923.        2815.39        46.9232        1.95513        .535286E-02
 TOTAL SIMULATION TIME         168923.        2815.39        46.9232        1.95513        .535286E-02
1
     5 ITERATIONS FOR TIME STEP   2 IN STRESS PERIOD  1
0MAXIMUM HEAD CHANGE FOR EACH ITERATION:
0 HEAD CHANGE LAYER,ROW,COL HEAD CHANGE LAYER,ROW,COL HEAD CHANGE LAYER,ROW,COL HEAD CHANGE LAYER,ROW,COL HEAD CHANGE LAYER,ROW,COL
 ------------------------------------------------------------------------------------------------------------------------------------
   -1.202     (  1,  1,  1)  -.2462     (  1,  2,  2)  -.5745E-01 (  1,  3,  2)  -.7809E-02 (  1,  4,  2)  -.7649E-03 (  1,  1,  1)
0
0HEAD/DRAWDOWN PRINTOUT FLAG = 1     TOTAL BUDGET PRINTOUT FLAG = 1     CELL-BY-CELL FLOW TERM FLAG = 1
 REUSING PREVIOUS VALUES OF IOFLG
0   RIVER LEAKAGE   PERIOD  1   STEP  2   REACH   1   LAYER  1   ROW   1   COL   4   RATE  -1507.910    
0   RIVER LEAKAGE   PERIOD  1   STEP  2   REACH   2   LAYER  1   ROW   2   COL   4   RATE  -1518.236    
0   RIVER LEAKAGE   PERIOD  1   STEP  2   REACH   3   LAYER  1   ROW   3   COL   4   RATE  -1529.733    
0   RIVER LEAKAGE   PERIOD  1   STEP  2   REACH   4   LAYER  1   ROW   4   COL   4   RATE  -1538.212    
0   RIVER LEAKAGE   PERIOD  1   STEP  2   REACH   5   LAYER  1   ROW   5   COL   4   RATE  -1543.363    
0   RIVER LEAKAGE   PERIOD  1   STEP  2   REACH   6   LAYER  1   ROW   6   COL   4   RATE  -1546.086    
0   RIVER LEAKAGE   PERIOD  1   STEP  2   REACH   7   LAYER  1   ROW   7   COL   4   RATE  -1547.225    
1                      HEAD IN LAYER  1 AT END OF TIME STEP  2 IN STRESS PERIOD  1
           -----------------------------------------------------------------------

           1       2       3       4       5       6       7
 ................................................................
0  1    6.508   8.042   8.232   7.540   8.681   9.274   9.521
0  2    8.271   8.571   8.401   7.591   8.699   9.280   9.524
0  3    8.997   8.938   8.558   7.649   8.722   9.290   9.529
0  4    9.306   9.135   8.660   7.691   8.741   9.299   9.534
0  5    9.439   9.231   8.716   7.717   8.754   9.305   9.538
0  6    9.496   9.275   8.743   7.730   8.761   9.309   9.540
0  7    9.517   9.291   8.754   7.736   8.764   9.311   9.541
0


                              VOLUMETRIC BUDGET FOR ENTIRE MODEL AT END OF TIME STEP  2 IN STRESS PERIOD  1
                              -----------------------------------------------------------------------------
0                   CUMULATIVE VOLUMES      L**3                                     RATES FOR THIS TIME STEP      L**3/T
                    ------------------                                               ------------------------

                          IN:                                                                    IN:
                          ---                                                                    ---
                            STORAGE =    59348.                                                    STORAGE =    13231.    
                      CONSTANT HEAD =    .00000                                              CONSTANT HEAD =    .00000    
                              WELLS =    .00000                                                      WELLS =    .00000    
                      RIVER LEAKAGE =    .00000                                              RIVER LEAKAGE =    .00000    
0                          TOTAL IN =    59348.                                                   TOTAL IN =    13231.    
0                        OUT:                                                                   OUT:
                         ----                                                                   ----
                            STORAGE =    .00000                                                    STORAGE =    .00000    
                      CONSTANT HEAD =    .00000                                              CONSTANT HEAD =    .00000    
                              WELLS =    10753.                                                      WELLS =    2500.0    
                      RIVER LEAKAGE =    48594.                                              RIVER LEAKAGE =    10731.    
0                         TOTAL OUT =    59347.                                                  TOTAL OUT =    13231.    
0                          IN - OUT =    .18750                                                   IN - OUT =    .60547E-01
0               PERCENT DISCREPANCY =                 .00                              PERCENT DISCREPANCY =                 .00



0


          TIME SUMMARY AT END OF TIME STEP  2 IN STRESS PERIOD  1
                               SECONDS        MINUTES         HOURS          DAYS           YEARS
                           ---------------------------------------------------------------------------
      TIME STEP LENGTH         202708.        3378.47        56.3078        2.34616        .642343E-02
    STRESS PERIOD TIME         371632.        6193.86        103.231        4.30129        .117763E-01
 TOTAL SIMULATION TIME         371632.        6193.86        103.231        4.30129        .117763E-01
1
     6 ITERATIONS FOR TIME STEP   3 IN STRESS PERIOD  1
0MAXIMUM HEAD CHANGE FOR EACH ITERATION:
0 HEAD CHANGE LAYER,ROW,COL HEAD CHANGE LAYER,ROW,COL HEAD CHANGE LAYER,ROW,COL HEAD CHANGE LAYER,ROW,COL HEAD CHANGE LAYER,ROW,COL
 ------------------------------------------------------------------------------------------------------------------------------------
   -.9627     (  1,  1,  1)  -.2925     (  1,  2,  2)  -.8020E-01 (  1,  1,  1)  -.1271E-01 (  1,  4,  2)  -.1584E-02 (  1,  1,  1)
    .8792E-04 (  1,  2,  1)
0
0HEAD/DRAWDOWN PRINTOUT FLAG = 1     TOTAL BUDGET PRINTOUT FLAG = 1     CELL-BY-CELL FLOW TERM FLAG = 1
 REUSING PREVIOUS VALUES OF IOFLG
0   RIVER LEAKAGE   PERIOD  1   STEP  3   REACH   1   LAYER  1   ROW   1   COL   4   RATE  -1343.224    
0   RIVER LEAKAGE   PERIOD  1   STEP  3   REACH   2   LAYER  1   ROW   2   COL   4   RATE  -1359.167    
0   RIVER LEAKAGE   PERIOD  1   STEP  3   REACH   3   LAYER  1   ROW   3   COL   4   RATE  -1378.507    
0   RIVER LEAKAGE   PERIOD  1   STEP  3   REACH   4   LAYER  1   ROW   4   COL   4   RATE  -1394.191    
0   RIVER LEAKAGE   PERIOD  1   STEP  3   REACH   5   LAYER  1   ROW   5   COL   4   RATE  -1404.675    
0   RIVER LEAKAGE   PERIOD  1   STEP  3   REACH   6   LAYER  1   ROW   6   COL   4   RATE  -1410.715    
0   RIVER LEAKAGE   PERIOD  1   STEP  3   REACH   7   LAYER  1   ROW   7   COL   4   RATE  -1413.407    
1                      HEAD IN LAYER  1 AT END OF TIME STEP  3 IN STRESS PERIOD  1
           -----------------------------------------------------------------------

           1       2       3       4       5       6       7
 ................................................................
0  1    5.253   6.937   7.250   6.716   7.940   8.660   8.989
0  2    7.228   7.589   7.482   6.796   7.972   8.674   8.997
0  3    8.151   8.096   7.722   6.893   8.015   8.694   9.009
0  4    8.603   8.404   7.894   6.971   8.055   8.715   9.022
0  5    8.827   8.573   7.999   7.023   8.083   8.731   9.032
0  6    8.934   8.658   8.056   7.054   8.101   8.741   9.040
0  7    8.977   8.694   8.080   7.067   8.109   8.746   9.043
0


                              VOLUMETRIC BUDGET FOR ENTIRE MODEL AT END OF TIME STEP  3 IN STRESS PERIOD  1
                              -----------------------------------------------------------------------------
0                   CUMULATIVE VOLUMES      L**3                                     RATES FOR THIS TIME STEP      L**3/T
                    ------------------                                               ------------------------

                          IN:                                                                    IN:
                          ---                                                                    ---
                            STORAGE =    93706.                                                    STORAGE =    12204.    
                      CONSTANT HEAD =    .00000                                              CONSTANT HEAD =    .00000    
                              WELLS =    .00000                                                      WELLS =    .00000    
                      RIVER LEAKAGE =    .00000                                              RIVER LEAKAGE =    .00000    
0                          TOTAL IN =    93706.                                                   TOTAL IN =    12204.    
0                        OUT:                                                                   OUT:
                         ----                                                                   ----
                            STORAGE =    .00000                                                    STORAGE =    .00000    
                      CONSTANT HEAD =    .00000                                              CONSTANT HEAD =    .00000    
                              WELLS =    17792.                                                      WELLS =    2500.0    
                      RIVER LEAKAGE =    75914.                                              RIVER LEAKAGE =    9703.9    
0                         TOTAL OUT =    93706.                                                  TOTAL OUT =    12204.    
0                          IN - OUT =    .25781                                                   IN - OUT =    .26367E-01
0               PERCENT DISCREPANCY =                 .00                              PERCENT DISCREPANCY =                 .00



0


          TIME SUMMARY AT END OF TIME STEP  3 IN STRESS PERIOD  1
                               SECONDS        MINUTES         HOURS          DAYS           YEARS
                           ---------------------------------------------------------------------------
      TIME STEP LENGTH         243250.        4054.16        67.5694        2.81539        .770812E-02
    STRESS PERIOD TIME         614881.        10248.0        170.800        7.11668        .194844E-01
 TOTAL SIMULATION TIME         614881.        10248.0        170.800        7.11668        .194844E-01
1
     6 ITERATIONS FOR TIME STEP   4 IN STRESS PERIOD  1
0MAXIMUM HEAD CHANGE FOR EACH ITERATION:
0 HEAD CHANGE LAYER,ROW,COL HEAD CHANGE LAYER,ROW,COL HEAD CHANGE LAYER,ROW,COL HEAD CHANGE LAYER,ROW,COL HEAD CHANGE LAYER,ROW,COL
 ------------------------------------------------------------------------------------------------------------------------------------
   -.8623     (  1,  1,  1)  -.3265     (  1,  2,  2)  -.1079     (  1,  1,  1)  -.2005E-01 (  1,  4,  2)  -.3041E-02 (  1,  1,  1)
    .1524E-03 (  1,  2,  1)
0
0HEAD/DRAWDOWN PRINTOUT FLAG = 1     TOTAL BUDGET PRINTOUT FLAG = 1     CELL-BY-CELL FLOW TERM FLAG = 1
 REUSING PREVIOUS VALUES OF IOFLG
0   RIVER LEAKAGE   PERIOD  1   STEP  4   REACH   1   LAYER  1   ROW   1   COL   4   RATE  -1185.109    
0   RIVER LEAKAGE   PERIOD  1   STEP  4   REACH   2   LAYER  1   ROW   2   COL   4   RATE  -1205.478    
0   RIVER LEAKAGE   PERIOD  1   STEP  4   REACH   3   LAYER  1   ROW   3   COL   4   RATE  -1231.606    
0   RIVER LEAKAGE   PERIOD  1   STEP  4   REACH   4   LAYER  1   ROW   4   COL   4   RATE  -1254.236    
0   RIVER LEAKAGE   PERIOD  1   STEP  4   REACH   5   LAYER  1   ROW   5   COL   4   RATE  -1270.428    
0   RIVER LEAKAGE   PERIOD  1   STEP  4   REACH   6   LAYER  1   ROW   6   COL   4   RATE  -1280.351    
0   RIVER LEAKAGE   PERIOD  1   STEP  4   REACH   7   LAYER  1   ROW   7   COL   4   RATE  -1284.975    
1                      HEAD IN LAYER  1 AT END OF TIME STEP  4 IN STRESS PERIOD  1
           -----------------------------------------------------------------------

           1       2       3       4       5       6       7
 ................................................................
0  1    4.037   5.830   6.274   5.926   7.161   7.929   8.296
0  2    6.135   6.556   6.551   6.027   7.206   7.951   8.310
0  3    7.184   7.160   6.853   6.158   7.271   7.986   8.332
0  4    7.743   7.555   7.087   6.271   7.333   8.021   8.356
0  5    8.046   7.791   7.240   6.352   7.381   8.050   8.377
0  6    8.203   7.920   7.329   6.402   7.412   8.070   8.392
0  7    8.270   7.976   7.370   6.425   7.427   8.080   8.400
0


                              VOLUMETRIC BUDGET FOR ENTIRE MODEL AT END OF TIME STEP  4 IN STRESS PERIOD  1
                              -----------------------------------------------------------------------------
0                   CUMULATIVE VOLUMES      L**3                                     RATES FOR THIS TIME STEP      L**3/T
                    ------------------                                               ------------------------

                          IN:                                                                    IN:
                          ---                                                                    ---
                            STORAGE =    .13159E+06                                                STORAGE =    11212.    
                      CONSTANT HEAD =    .00000                                              CONSTANT HEAD =    .00000    
                              WELLS =    .00000                                                      WELLS =    .00000    
                      RIVER LEAKAGE =    .00000                                              RIVER LEAKAGE =    .00000    
0                          TOTAL IN =    .13159E+06                                               TOTAL IN =    11212.    
0                        OUT:                                                                   OUT:
                         ----                                                                   ----
                            STORAGE =    .00000                                                    STORAGE =    .00000    
                      CONSTANT HEAD =    .00000                                              CONSTANT HEAD =    .00000    
                              WELLS =    26238.                                                      WELLS =    2500.0    
                      RIVER LEAKAGE =    .10535E+06                                          RIVER LEAKAGE =    8712.2    
0                         TOTAL OUT =    .13159E+06                                              TOTAL OUT =    11212.    
0                          IN - OUT =    .21875                                                   IN - OUT =   -.16602E-01
0               PERCENT DISCREPANCY =                 .00                              PERCENT DISCREPANCY =                 .00



0


          TIME SUMMARY AT END OF TIME STEP  4 IN STRESS PERIOD  1
                               SECONDS        MINUTES         HOURS          DAYS           YEARS
                           ---------------------------------------------------------------------------
      TIME STEP LENGTH         291900.        4865.00        81.0833        3.37847        .924974E-02
    STRESS PERIOD TIME         906781.        15113.0        251.884        10.4952        .287342E-01
 TOTAL SIMULATION TIME         906781.        15113.0        251.884        10.4952        .287342E-01
1
     6 ITERATIONS FOR TIME STEP   5 IN STRESS PERIOD  1
0MAXIMUM HEAD CHANGE FOR EACH ITERATION:
0 HEAD CHANGE LAYER,ROW,COL HEAD CHANGE LAYER,ROW,COL HEAD CHANGE LAYER,ROW,COL HEAD CHANGE LAYER,ROW,COL HEAD CHANGE LAYER,ROW,COL
 ------------------------------------------------------------------------------------------------------------------------------------
   -.7997     (  1,  1,  1)  -.3522     (  1,  2,  2)  -.1389     (  1,  1,  1)  -.3039E-01 (  1,  4,  2)  -.5537E-02 (  1,  1,  1)
    .2360E-03 (  1,  2,  1)
0
0HEAD/DRAWDOWN PRINTOUT FLAG = 1     TOTAL BUDGET PRINTOUT FLAG = 1     CELL-BY-CELL FLOW TERM FLAG = 1
 REUSING PREVIOUS VALUES OF IOFLG
0   RIVER LEAKAGE   PERIOD  1   STEP  5   REACH   1   LAYER  1   ROW   1   COL   4   RATE  -1025.712    
0   RIVER LEAKAGE   PERIOD  1   STEP  5   REACH   2   LAYER  1   ROW   2   COL   4   RATE  -1049.341    
0   RIVER LEAKAGE   PERIOD  1   STEP  5   REACH   3   LAYER  1   ROW   3   COL   4   RATE  -1080.746    
0   RIVER LEAKAGE   PERIOD  1   STEP  5   REACH   4   LAYER  1   ROW   4   COL   4   RATE  -1109.159    
0   RIVER LEAKAGE   PERIOD  1   STEP  5   REACH   5   LAYER  1   ROW   5   COL   4   RATE  -1130.449    
0   RIVER LEAKAGE   PERIOD  1   STEP  5   REACH   6   LAYER  1   ROW   6   COL   4   RATE  -1144.057    
0   RIVER LEAKAGE   PERIOD  1   STEP  5   REACH   7   LAYER  1   ROW   7   COL   4   RATE  -1150.590    
1                      HEAD IN LAYER  1 AT END OF TIME STEP  5 IN STRESS PERIOD  1
           -----------------------------------------------------------------------

           1       2       3       4       5       6       7
 ................................................................
0  1    2.818   4.717   5.296   5.129   6.333   7.101   7.475
0  2    5.005   5.493   5.603   5.247   6.389   7.131   7.495
0  3    6.139   6.163   5.951   5.404   6.473   7.179   7.529
0  4    6.776   6.624   6.232   5.546   6.556   7.230   7.566
0  5    7.141   6.914   6.427   5.652   6.623   7.274   7.599
0  6    7.341   7.080   6.544   5.720   6.669   7.306   7.624
0  7    7.429   7.155   6.599   5.753   6.692   7.322   7.636
0


                              VOLUMETRIC BUDGET FOR ENTIRE MODEL AT END OF TIME STEP  5 IN STRESS PERIOD  1
                              -----------------------------------------------------------------------------
0                   CUMULATIVE VOLUMES      L**3                                     RATES FOR THIS TIME STEP      L**3/T
                    ------------------                                               ------------------------

                          IN:                                                                    IN:
                          ---                                                                    ---
                            STORAGE =    .17290E+06                                                STORAGE =    10190.    
                      CONSTANT HEAD =    .00000                                              CONSTANT HEAD =    .00000    
                              WELLS =    .00000                                                      WELLS =    .00000    
                      RIVER LEAKAGE =    .00000                                              RIVER LEAKAGE =    .00000    
0                          TOTAL IN =    .17290E+06                                               TOTAL IN =    10190.    
0                        OUT:                                                                   OUT:
                         ----                                                                   ----
                            STORAGE =    .00000                                                    STORAGE =    .00000    
                      CONSTANT HEAD =    .00000                                              CONSTANT HEAD =    .00000    
                              WELLS =    36373.                                                      WELLS =    2500.0    
                      RIVER LEAKAGE =    .13652E+06                                          RIVER LEAKAGE =    7690.1    
0                         TOTAL OUT =    .17290E+06                                              TOTAL OUT =    10190.    
0                          IN - OUT =   -.62500                                                   IN - OUT =   -.20898    
0               PERCENT DISCREPANCY =                 .00                              PERCENT DISCREPANCY =                -.00



0


          TIME SUMMARY AT END OF TIME STEP  5 IN STRESS PERIOD  1
                               SECONDS        MINUTES         HOURS          DAYS           YEARS
                           ---------------------------------------------------------------------------
      TIME STEP LENGTH         350280.        5838.00        97.2999        4.05416        .110997E-01
    STRESS PERIOD TIME         .125706E+07    20951.0        349.184        14.5493        .398339E-01
 TOTAL SIMULATION TIME         .125706E+07    20951.0        349.184        14.5493        .398339E-01
1
     6 ITERATIONS FOR TIME STEP   6 IN STRESS PERIOD  1
0MAXIMUM HEAD CHANGE FOR EACH ITERATION:
0 HEAD CHANGE LAYER,ROW,COL HEAD CHANGE LAYER,ROW,COL HEAD CHANGE LAYER,ROW,COL HEAD CHANGE LAYER,ROW,COL HEAD CHANGE LAYER,ROW,COL
 ------------------------------------------------------------------------------------------------------------------------------------
   -.7453     (  1,  1,  1)  -.3701     (  1,  2,  2)  -.1718     (  1,  1,  1)  -.4394E-01 (  1,  4,  2)  -.9551E-02 (  1,  1,  1)
    .3273E-03 (  1,  2,  1)
0
0HEAD/DRAWDOWN PRINTOUT FLAG = 1     TOTAL BUDGET PRINTOUT FLAG = 1     CELL-BY-CELL FLOW TERM FLAG = 1
 REUSING PREVIOUS VALUES OF IOFLG
0   RIVER LEAKAGE   PERIOD  1   STEP  6   REACH   1   LAYER  1   ROW   1   COL   4   RATE  -862.5995    
0   RIVER LEAKAGE   PERIOD  1   STEP  6   REACH   2   LAYER  1   ROW   2   COL   4   RATE  -888.5632    
0   RIVER LEAKAGE   PERIOD  1   STEP  6   REACH   3   LAYER  1   ROW   3   COL   4   RATE  -923.8350    
0   RIVER LEAKAGE   PERIOD  1   STEP  6   REACH   4   LAYER  1   ROW   4   COL   4   RATE  -956.6438    
0   RIVER LEAKAGE   PERIOD  1   STEP  6   REACH   5   LAYER  1   ROW   5   COL   4   RATE  -981.9692    
0   RIVER LEAKAGE   PERIOD  1   STEP  6   REACH   6   LAYER  1   ROW   6   COL   4   RATE  -998.5983    
0   RIVER LEAKAGE   PERIOD  1   STEP  6   REACH   7   LAYER  1   ROW   7   COL   4   RATE  -1006.735    
1                      HEAD IN LAYER  1 AT END OF TIME STEP  6 IN STRESS PERIOD  1
           -----------------------------------------------------------------------

           1       2       3       4       5       6       7
 ................................................................
0  1    1.586   3.593   4.307   4.313   5.457   6.194   6.555
0  2    3.848   4.406   4.635   4.443   5.522   6.231   6.581
0  3    5.045   5.123   5.015   4.619   5.620   6.291   6.626
0  4    5.738   5.631   5.332   4.783   5.721   6.356   6.676
0  5    6.149   5.962   5.557   4.910   5.805   6.414   6.721
0  6    6.381   6.157   5.698   4.993   5.863   6.456   6.755
0  7    6.486   6.247   5.764   5.034   5.893   6.478   6.773
0


                              VOLUMETRIC BUDGET FOR ENTIRE MODEL AT END OF TIME STEP  6 IN STRESS PERIOD  1
                              -----------------------------------------------------------------------------
0                   CUMULATIVE VOLUMES      L**3                                     RATES FOR THIS TIME STEP      L**3/T
                    ------------------                                               ------------------------

                          IN:                                                                    IN:
                          ---                                                                    ---
                            STORAGE =    .21726E+06                                                STORAGE =    9118.2    
                      CONSTANT HEAD =    .00000                                              CONSTANT HEAD =    .00000    
                              WELLS =    .00000                                                      WELLS =    .00000    
                      RIVER LEAKAGE =    .00000                                              RIVER LEAKAGE =    .00000    
0                          TOTAL IN =    .21726E+06                                               TOTAL IN =    9118.2    
0                        OUT:                                                                   OUT:
                         ----                                                                   ----
                            STORAGE =    .00000                                                    STORAGE =    .00000    
                      CONSTANT HEAD =    .00000                                              CONSTANT HEAD =    .00000    
                              WELLS =    48536.                                                      WELLS =    2500.0    
                      RIVER LEAKAGE =    .16873E+06                                          RIVER LEAKAGE =    6618.9    
0                         TOTAL OUT =    .21726E+06                                              TOTAL OUT =    9118.9    
0                          IN - OUT =   -4.0625                                                   IN - OUT =   -.70410    
0               PERCENT DISCREPANCY =                -.00                              PERCENT DISCREPANCY =                -.01



0


          TIME SUMMARY AT END OF TIME STEP  6 IN STRESS PERIOD  1
                               SECONDS        MINUTES         HOURS          DAYS           YEARS
                           ---------------------------------------------------------------------------
      TIME STEP LENGTH         420336.        7005.59        116.760        4.86500        .133196E-01
    STRESS PERIOD TIME         .167740E+07    27956.6        465.944        19.4143        .531535E-01
 TOTAL SIMULATION TIME         .167740E+07    27956.6        465.944        19.4143        .531535E-01
1
     6 ITERATIONS FOR TIME STEP   7 IN STRESS PERIOD  1
0MAXIMUM HEAD CHANGE FOR EACH ITERATION:
0 HEAD CHANGE LAYER,ROW,COL HEAD CHANGE LAYER,ROW,COL HEAD CHANGE LAYER,ROW,COL HEAD CHANGE LAYER,ROW,COL HEAD CHANGE LAYER,ROW,COL
 ------------------------------------------------------------------------------------------------------------------------------------
   -.6908     (  1,  1,  1)  -.3794     (  1,  2,  2)  -.2043     (  1,  1,  1)  -.6028E-01 (  1,  4,  2)  -.1554E-01 (  1,  1,  1)
   -.5355E-03 (  1,  1,  7)
0
0HEAD/DRAWDOWN PRINTOUT FLAG = 1     TOTAL BUDGET PRINTOUT FLAG = 1     CELL-BY-CELL FLOW TERM FLAG = 1
 REUSING PREVIOUS VALUES OF IOFLG
0   RIVER LEAKAGE   PERIOD  1   STEP  7   REACH   1   LAYER  1   ROW   1   COL   4   RATE  -696.1282    
0   RIVER LEAKAGE   PERIOD  1   STEP  7   REACH   2   LAYER  1   ROW   2   COL   4   RATE  -723.7479    
0   RIVER LEAKAGE   PERIOD  1   STEP  7   REACH   3   LAYER  1   ROW   3   COL   4   RATE  -761.7622    
0   RIVER LEAKAGE   PERIOD  1   STEP  7   REACH   4   LAYER  1   ROW   4   COL   4   RATE  -797.7192    
0   RIVER LEAKAGE   PERIOD  1   STEP  7   REACH   5   LAYER  1   ROW   5   COL   4   RATE  -825.9803    
0   RIVER LEAKAGE   PERIOD  1   STEP  7   REACH   6   LAYER  1   ROW   6   COL   4   RATE  -844.8427    
0   RIVER LEAKAGE   PERIOD  1   STEP  7   REACH   7   LAYER  1   ROW   7   COL   4   RATE  -854.1773    
1                      HEAD IN LAYER  1 AT END OF TIME STEP  7 IN STRESS PERIOD  1
           -----------------------------------------------------------------------

           1       2       3       4       5       6       7
 ................................................................
0  1     .343   2.460   3.307   3.481   4.541   5.226   5.564
0  2    2.673   3.302   3.650   3.619   4.612   5.269   5.596
0  3    3.920   4.055   4.054   3.809   4.722   5.339   5.649
0  4    4.654   4.598   4.396   3.989   4.837   5.416   5.710
0  5    5.098   4.957   4.643   4.130   4.934   5.486   5.766
0  6    5.354   5.173   4.801   4.224   5.002   5.536   5.808
0  7    5.471   5.275   4.876   4.271   5.037   5.563   5.830
0


                              VOLUMETRIC BUDGET FOR ENTIRE MODEL AT END OF TIME STEP  7 IN STRESS PERIOD  1
                              -----------------------------------------------------------------------------
0                   CUMULATIVE VOLUMES      L**3                                     RATES FOR THIS TIME STEP      L**3/T
                    ------------------                                               ------------------------

                          IN:                                                                    IN:
                          ---                                                                    ---
                            STORAGE =    .26398E+06                                                STORAGE =    8002.6    
                      CONSTANT HEAD =    .00000                                              CONSTANT HEAD =    .00000    
                              WELLS =    .00000                                                      WELLS =    .00000    
                      RIVER LEAKAGE =    .00000                                              RIVER LEAKAGE =    .00000    
0                          TOTAL IN =    .26398E+06                                               TOTAL IN =    8002.6    
0                        OUT:                                                                   OUT:
                         ----                                                                   ----
                            STORAGE =    .00000                                                    STORAGE =    .00000    
                      CONSTANT HEAD =    .00000                                              CONSTANT HEAD =    .00000    
                              WELLS =    63131.                                                      WELLS =    2500.0    
                      RIVER LEAKAGE =    .20086E+06                                          RIVER LEAKAGE =    5504.4    
0                         TOTAL OUT =    .26399E+06                                              TOTAL OUT =    8004.4    
0                          IN - OUT =   -14.156                                                   IN - OUT =   -1.7290    
0               PERCENT DISCREPANCY =                -.01                              PERCENT DISCREPANCY =                -.02



0


          TIME SUMMARY AT END OF TIME STEP  7 IN STRESS PERIOD  1
                               SECONDS        MINUTES         HOURS          DAYS           YEARS
                           ---------------------------------------------------------------------------
      TIME STEP LENGTH         504403.        8406.71        140.112        5.83800        .159836E-01
    STRESS PERIOD TIME         .218180E+07    36363.3        606.055        25.2523        .691371E-01
 TOTAL SIMULATION TIME         .218180E+07    36363.3        606.055        25.2523        .691371E-01
1
     6 ITERATIONS FOR TIME STEP   8 IN STRESS PERIOD  1
0MAXIMUM HEAD CHANGE FOR EACH ITERATION:
0 HEAD CHANGE LAYER,ROW,COL HEAD CHANGE LAYER,ROW,COL HEAD CHANGE LAYER,ROW,COL HEAD CHANGE LAYER,ROW,COL HEAD CHANGE LAYER,ROW,COL
 ------------------------------------------------------------------------------------------------------------------------------------
   -.6332     (  1,  1,  1)  -.3787     (  1,  2,  2)  -.2331     (  1,  1,  1)  -.7824E-01 (  1,  4,  2)  -.2377E-01 (  1,  1,  1)
   -.9188E-03 (  1,  1,  7)
0
0HEAD/DRAWDOWN PRINTOUT FLAG = 1     TOTAL BUDGET PRINTOUT FLAG = 1     CELL-BY-CELL FLOW TERM FLAG = 1
 REUSING PREVIOUS VALUES OF IOFLG
0   RIVER LEAKAGE   PERIOD  1   STEP  8   REACH   1   LAYER  1   ROW   1   COL   4   RATE  -528.5056    
0   RIVER LEAKAGE   PERIOD  1   STEP  8   REACH   2   LAYER  1   ROW   2   COL   4   RATE  -557.3071    
0   RIVER LEAKAGE   PERIOD  1   STEP  8   REACH   3   LAYER  1   ROW   3   COL   4   RATE  -597.2409    
0   RIVER LEAKAGE   PERIOD  1   STEP  8   REACH   4   LAYER  1   ROW   4   COL   4   RATE  -635.3763    
0   RIVER LEAKAGE   PERIOD  1   STEP  8   REACH   5   LAYER  1   ROW   5   COL   4   RATE  -665.6600    
0   RIVER LEAKAGE   PERIOD  1   STEP  8   REACH   6   LAYER  1   ROW   6   COL   4   RATE  -686.0612    
0   RIVER LEAKAGE   PERIOD  1   STEP  8   REACH   7   LAYER  1   ROW   7   COL   4   RATE  -696.2207    
1                      HEAD IN LAYER  1 AT END OF TIME STEP  8 IN STRESS PERIOD  1
           -----------------------------------------------------------------------

           1       2       3       4       5       6       7
 ................................................................
0  1    -.902   1.326   2.305   2.643   3.603   4.225   4.531
0  2    1.493   2.195   2.660   2.787   3.679   4.271   4.566
0  3    2.782   2.976   3.082   2.986   3.798   4.349   4.626
0  4    3.548   3.544   3.441   3.177   3.922   4.435   4.696
0  5    4.017   3.924   3.705   3.328   4.028   4.513   4.760
0  6    4.290   4.156   3.874   3.430   4.104   4.570   4.808
0  7    4.416   4.265   3.955   3.481   4.142   4.600   4.834
0


                              VOLUMETRIC BUDGET FOR ENTIRE MODEL AT END OF TIME STEP  8 IN STRESS PERIOD  1
                              -----------------------------------------------------------------------------
0                   CUMULATIVE VOLUMES      L**3                                     RATES FOR THIS TIME STEP      L**3/T
                    ------------------                                               ------------------------

                          IN:                                                                    IN:
                          ---                                                                    ---
                            STORAGE =    .31206E+06                                                STORAGE =    6862.8    
                      CONSTANT HEAD =    .00000                                              CONSTANT HEAD =    .00000    
                              WELLS =    .00000                                                      WELLS =    .00000    
                      RIVER LEAKAGE =    .00000                                              RIVER LEAKAGE =    .00000    
0                          TOTAL IN =    .31206E+06                                               TOTAL IN =    6862.8    
0                        OUT:                                                                   OUT:
                         ----                                                                   ----
                            STORAGE =    .00000                                                    STORAGE =    .00000    
                      CONSTANT HEAD =    .00000                                              CONSTANT HEAD =    .00000    
                              WELLS =    80645.                                                      WELLS =    2500.0    
                      RIVER LEAKAGE =    .23145E+06                                          RIVER LEAKAGE =    4366.4    
0                         TOTAL OUT =    .31209E+06                                              TOTAL OUT =    6866.4    
0                          IN - OUT =   -38.875                                                   IN - OUT =   -3.5327    
0               PERCENT DISCREPANCY =                -.01                              PERCENT DISCREPANCY =                -.05



0


          TIME SUMMARY AT END OF TIME STEP  8 IN STRESS PERIOD  1
                               SECONDS        MINUTES         HOURS          DAYS           YEARS
                           ---------------------------------------------------------------------------
      TIME STEP LENGTH         605283.        10088.1        168.134        7.00560        .191803E-01
    STRESS PERIOD TIME         .278708E+07    46451.4        774.190        32.2579        .883173E-01
 TOTAL SIMULATION TIME         .278708E+07    46451.4        774.190        32.2579        .883173E-01
1
     7 ITERATIONS FOR TIME STEP   9 IN STRESS PERIOD  1
0MAXIMUM HEAD CHANGE FOR EACH ITERATION:
0 HEAD CHANGE LAYER,ROW,COL HEAD CHANGE LAYER,ROW,COL HEAD CHANGE LAYER,ROW,COL HEAD CHANGE LAYER,ROW,COL HEAD CHANGE LAYER,ROW,COL
 ------------------------------------------------------------------------------------------------------------------------------------
   -.5707     (  1,  1,  1)  -.3668     (  1,  2,  2)  -.2544     (  1,  1,  1)  -.9665E-01 (  1,  5,  1)  -.3406E-01 (  1,  1,  1)
   -.1467E-02 (  1,  1,  7)  -.6189E-03 (  1,  2,  6)
0
0HEAD/DRAWDOWN PRINTOUT FLAG = 1     TOTAL BUDGET PRINTOUT FLAG = 1     CELL-BY-CELL FLOW TERM FLAG = 1
 REUSING PREVIOUS VALUES OF IOFLG
0   RIVER LEAKAGE   PERIOD  1   STEP  9   REACH   1   LAYER  1   ROW   1   COL   4   RATE  -363.1872    
0   RIVER LEAKAGE   PERIOD  1   STEP  9   REACH   2   LAYER  1   ROW   2   COL   4   RATE  -392.8535    
0   RIVER LEAKAGE   PERIOD  1   STEP  9   REACH   3   LAYER  1   ROW   3   COL   4   RATE  -434.1435    
0   RIVER LEAKAGE   PERIOD  1   STEP  9   REACH   4   LAYER  1   ROW   4   COL   4   RATE  -473.7729    
0   RIVER LEAKAGE   PERIOD  1   STEP  9   REACH   5   LAYER  1   ROW   5   COL   4   RATE  -505.4173    
0   RIVER LEAKAGE   PERIOD  1   STEP  9   REACH   6   LAYER  1   ROW   6   COL   4   RATE  -526.8424    
0   RIVER LEAKAGE   PERIOD  1   STEP  9   REACH   7   LAYER  1   ROW   7   COL   4   RATE  -537.5513    
1                      HEAD IN LAYER  1 AT END OF TIME STEP  9 IN STRESS PERIOD  1
           -----------------------------------------------------------------------

           1       2       3       4       5       6       7
 ................................................................
0  1   -2.130    .210   1.318   1.816   2.667   3.217   3.487
0  2     .329   1.102   1.684   1.964   2.747   3.266   3.525
0  3    1.656   1.907   2.119   2.171   2.871   3.349   3.590
0  4    2.448   2.495   2.492   2.369   3.002   3.441   3.665
0  5    2.935   2.891   2.767   2.527   3.115   3.525   3.735
0  6    3.221   3.133   2.944   2.634   3.195   3.587   3.789
0  7    3.353   3.248   3.030   2.688   3.237   3.620   3.817
0


                              VOLUMETRIC BUDGET FOR ENTIRE MODEL AT END OF TIME STEP  9 IN STRESS PERIOD  1
                              -----------------------------------------------------------------------------
0                   CUMULATIVE VOLUMES      L**3                                     RATES FOR THIS TIME STEP      L**3/T
                    ------------------                                               ------------------------

                          IN:                                                                    IN:
                          ---                                                                    ---
                            STORAGE =    .36023E+06                                                STORAGE =    5730.6    
                      CONSTANT HEAD =    .00000                                              CONSTANT HEAD =    .00000    
                              WELLS =    .00000                                                      WELLS =    .00000    
                      RIVER LEAKAGE =    .00000                                              RIVER LEAKAGE =    .00000    
0                          TOTAL IN =    .36023E+06                                               TOTAL IN =    5730.6    
0                        OUT:                                                                   OUT:
                         ----                                                                   ----
                            STORAGE =    .00000                                                    STORAGE =    .00000    
                      CONSTANT HEAD =    .00000                                              CONSTANT HEAD =    .00000    
                              WELLS =    .10166E+06                                                  WELLS =    2500.0    
                      RIVER LEAKAGE =    .25863E+06                                          RIVER LEAKAGE =    3233.8    
0                         TOTAL OUT =    .36030E+06                                              TOTAL OUT =    5733.8    
0                          IN - OUT =   -65.250                                                   IN - OUT =   -3.1318    
0               PERCENT DISCREPANCY =                -.02                              PERCENT DISCREPANCY =                -.05



0


          TIME SUMMARY AT END OF TIME STEP  9 IN STRESS PERIOD  1
                               SECONDS        MINUTES         HOURS          DAYS           YEARS
                           ---------------------------------------------------------------------------
      TIME STEP LENGTH         726340.        12105.7        201.761        8.40672        .230163E-01
    STRESS PERIOD TIME         .351342E+07    58557.1        975.951        40.6646        .111334    
 TOTAL SIMULATION TIME         .351342E+07    58557.1        975.951        40.6646        .111334    
1
     8 ITERATIONS FOR TIME STEP  10 IN STRESS PERIOD  1
0MAXIMUM HEAD CHANGE FOR EACH ITERATION:
0 HEAD CHANGE LAYER,ROW,COL HEAD CHANGE LAYER,ROW,COL HEAD CHANGE LAYER,ROW,COL HEAD CHANGE LAYER,ROW,COL HEAD CHANGE LAYER,ROW,COL
 ------------------------------------------------------------------------------------------------------------------------------------
   -.5028     (  1,  1,  1)  -.3433     (  1,  2,  2)  -.2648     (  1,  1,  1)  -.1126     (  1,  5,  1)  -.4559E-01 (  1,  1,  1)
   -.2176E-02 (  1,  1,  7)  -.1014E-02 (  1,  7,  7)  -.6921E-03 (  1,  1,  7)
0
0HEAD/DRAWDOWN PRINTOUT FLAG = 1     TOTAL BUDGET PRINTOUT FLAG = 1     CELL-BY-CELL FLOW TERM FLAG = 1
 REUSING PREVIOUS VALUES OF IOFLG
0   RIVER LEAKAGE   PERIOD  1   STEP 10   REACH   1   LAYER  1   ROW   1   COL   4   RATE  -204.5339    
0   RIVER LEAKAGE   PERIOD  1   STEP 10   REACH   2   LAYER  1   ROW   2   COL   4   RATE  -234.8565    
0   RIVER LEAKAGE   PERIOD  1   STEP 10   REACH   3   LAYER  1   ROW   3   COL   4   RATE  -277.1402    
0   RIVER LEAKAGE   PERIOD  1   STEP 10   REACH   4   LAYER  1   ROW   4   COL   4   RATE  -317.8263    
0   RIVER LEAKAGE   PERIOD  1   STEP 10   REACH   5   LAYER  1   ROW   5   COL   4   RATE  -350.4054    
0   RIVER LEAKAGE   PERIOD  1   STEP 10   REACH   6   LAYER  1   ROW   6   COL   4   RATE  -372.5217    
0   RIVER LEAKAGE   PERIOD  1   STEP 10   REACH   7   LAYER  1   ROW   7   COL   4   RATE  -383.6002    
1                      HEAD IN LAYER  1 AT END OF TIME STEP 10 IN STRESS PERIOD  1
           -----------------------------------------------------------------------

           1       2       3       4       5       6       7
 ................................................................
0  1   -3.316   -.864    .370   1.023   1.760   2.234   2.468
0  2    -.793    .050    .745   1.174   1.843   2.286   2.507
0  3     .569    .876   1.191   1.386   1.971   2.372   2.575
0  4    1.383   1.481   1.575   1.589   2.107   2.469   2.655
0  5    1.886   1.890   1.858   1.752   2.224   2.557   2.729
0  6    2.181   2.140   2.041   1.863   2.308   2.623   2.785
0  7    2.318   2.258   2.130   1.918   2.351   2.657   2.815
0


                              VOLUMETRIC BUDGET FOR ENTIRE MODEL AT END OF TIME STEP 10 IN STRESS PERIOD  1
                              -----------------------------------------------------------------------------
0                   CUMULATIVE VOLUMES      L**3                                     RATES FOR THIS TIME STEP      L**3/T
                    ------------------                                               ------------------------

                          IN:                                                                    IN:
                          ---                                                                    ---
                            STORAGE =    .40703E+06                                                STORAGE =    4638.8    
                      CONSTANT HEAD =    .00000                                              CONSTANT HEAD =    .00000    
                              WELLS =    .00000                                                      WELLS =    .00000    
                      RIVER LEAKAGE =    .00000                                              RIVER LEAKAGE =    .00000    
0                          TOTAL IN =    .40703E+06                                               TOTAL IN =    4638.8    
0                        OUT:                                                                   OUT:
                         ----                                                                   ----
                            STORAGE =    .00000                                                    STORAGE =    .00000    
                      CONSTANT HEAD =    .00000                                              CONSTANT HEAD =    .00000    
                              WELLS =    .12688E+06                                                  WELLS =    2500.0    
                      RIVER LEAKAGE =    .28023E+06                                          RIVER LEAKAGE =    2140.9    
0                         TOTAL OUT =    .40711E+06                                              TOTAL OUT =    4640.9    
0                          IN - OUT =   -86.188                                                   IN - OUT =   -2.0757    
0               PERCENT DISCREPANCY =                -.02                              PERCENT DISCREPANCY =                -.04



0


          TIME SUMMARY AT END OF TIME STEP 10 IN STRESS PERIOD  1
                               SECONDS        MINUTES         HOURS          DAYS           YEARS
                           ---------------------------------------------------------------------------
      TIME STEP LENGTH         871608.        14526.8        242.113        10.0881        .276196E-01
    STRESS PERIOD TIME         .438503E+07    73083.9        1218.06        50.7527        .138953    
 TOTAL SIMULATION TIME         .438503E+07    73083.9        1218.06        50.7527        .138953    
1
     9 ITERATIONS FOR TIME STEP  11 IN STRESS PERIOD  1
0MAXIMUM HEAD CHANGE FOR EACH ITERATION:
0 HEAD CHANGE LAYER,ROW,COL HEAD CHANGE LAYER,ROW,COL HEAD CHANGE LAYER,ROW,COL HEAD CHANGE LAYER,ROW,COL HEAD CHANGE LAYER,ROW,COL
 ------------------------------------------------------------------------------------------------------------------------------------
   -.4301     (  1,  1,  1)  -.3163     (  1,  1,  7)  -.2620     (  1,  1,  1)  -.1231     (  1,  5,  1)  -.5685E-01 (  1,  1,  1)
   -.3001E-02 (  1,  1,  1)  -.1547E-02 (  1,  7,  7)  -.1135E-02 (  1,  1,  7)  -.6136E-03 (  1,  1,  1)
0
0HEAD/DRAWDOWN PRINTOUT FLAG = 1     TOTAL BUDGET PRINTOUT FLAG = 1     CELL-BY-CELL FLOW TERM FLAG = 1
 REUSING PREVIOUS VALUES OF IOFLG
0   RIVER LEAKAGE   PERIOD  1   STEP 11   REACH   1   LAYER  1   ROW   1   COL   4   RATE  -57.27801    
0   RIVER LEAKAGE   PERIOD  1   STEP 11   REACH   2   LAYER  1   ROW   2   COL   4   RATE  -88.12218    
0   RIVER LEAKAGE   PERIOD  1   STEP 11   REACH   3   LAYER  1   ROW   3   COL   4   RATE  -131.1756    
0   RIVER LEAKAGE   PERIOD  1   STEP 11   REACH   4   LAYER  1   ROW   4   COL   4   RATE  -172.6514    
0   RIVER LEAKAGE   PERIOD  1   STEP 11   REACH   5   LAYER  1   ROW   5   COL   4   RATE  -205.9059    
0   RIVER LEAKAGE   PERIOD  1   STEP 11   REACH   6   LAYER  1   ROW   6   COL   4   RATE  -228.5077    
0   RIVER LEAKAGE   PERIOD  1   STEP 11   REACH   7   LAYER  1   ROW   7   COL   4   RATE  -239.8380    
1                      HEAD IN LAYER  1 AT END OF TIME STEP 11 IN STRESS PERIOD  1
           -----------------------------------------------------------------------

           1       2       3       4       5       6       7
 ................................................................
0  1   -4.426  -1.867   -.512    .286    .913   1.312   1.508
0  2   -1.843   -.932   -.130    .441    .998   1.366   1.549
0  3    -.448   -.087    .326    .656   1.129   1.454   1.620
0  4     .387    .533    .718    .863   1.268   1.554   1.702
0  5     .902    .952   1.009   1.030   1.389   1.645   1.779
0  6    1.205   1.208   1.196   1.143   1.475   1.713   1.837
0  7    1.346   1.330   1.287   1.199   1.519   1.749   1.869
0


                              VOLUMETRIC BUDGET FOR ENTIRE MODEL AT END OF TIME STEP 11 IN STRESS PERIOD  1
                              -----------------------------------------------------------------------------
0                   CUMULATIVE VOLUMES      L**3                                     RATES FOR THIS TIME STEP      L**3/T
                    ------------------                                               ------------------------

                          IN:                                                                    IN:
                          ---                                                                    ---
                            STORAGE =    .45088E+06                                                STORAGE =    3622.6    
                      CONSTANT HEAD =    .00000                                              CONSTANT HEAD =    .00000    
                              WELLS =    .00000                                                      WELLS =    .00000    
                      RIVER LEAKAGE =    .00000                                              RIVER LEAKAGE =    .00000    
0                          TOTAL IN =    .45088E+06                                               TOTAL IN =    3622.6    
0                        OUT:                                                                   OUT:
                         ----                                                                   ----
                            STORAGE =    .00000                                                    STORAGE =    .00000    
                      CONSTANT HEAD =    .00000                                              CONSTANT HEAD =    .00000    
                              WELLS =    .15715E+06                                                  WELLS =    2500.0    
                      RIVER LEAKAGE =    .29383E+06                                          RIVER LEAKAGE =    1123.5    
0                         TOTAL OUT =    .45098E+06                                              TOTAL OUT =    3623.5    
0                          IN - OUT =   -97.219                                                   IN - OUT =   -.91162    
0               PERCENT DISCREPANCY =                -.02                              PERCENT DISCREPANCY =                -.03



0


          TIME SUMMARY AT END OF TIME STEP 11 IN STRESS PERIOD  1
                               SECONDS        MINUTES         HOURS          DAYS           YEARS
                           ---------------------------------------------------------------------------
      TIME STEP LENGTH         .104593E+07    17432.2        290.536        12.1057        .331435E-01
    STRESS PERIOD TIME         .543096E+07    90516.0        1508.60        62.8583        .172097    
 TOTAL SIMULATION TIME         .543096E+07    90516.0        1508.60        62.8583        .172097    
1
    10 ITERATIONS FOR TIME STEP  12 IN STRESS PERIOD  1
0MAXIMUM HEAD CHANGE FOR EACH ITERATION:
0 HEAD CHANGE LAYER,ROW,COL HEAD CHANGE LAYER,ROW,COL HEAD CHANGE LAYER,ROW,COL HEAD CHANGE LAYER,ROW,COL HEAD CHANGE LAYER,ROW,COL
 ------------------------------------------------------------------------------------------------------------------------------------
   -.3545     (  1,  1,  1)  -.2779     (  1,  1,  7)  -.2452     (  1,  1,  1)  -.1260     (  1,  5,  1)  -.6579E-01 (  1,  1,  1)
   -.4064E-02 (  1,  1,  1)  -.2131E-02 (  1,  7,  7)  -.1673E-02 (  1,  1,  7)  -.1029E-02 (  1,  1,  1)  -.3189E-03 (  1,  1,  7)
0
0HEAD/DRAWDOWN PRINTOUT FLAG = 1     TOTAL BUDGET PRINTOUT FLAG = 1     CELL-BY-CELL FLOW TERM FLAG = 1
 REUSING PREVIOUS VALUES OF IOFLG
0   RIVER LEAKAGE   PERIOD  1   STEP 12   REACH   1   LAYER  1   ROW   1   COL   4   RATE   74.10265    
0   RIVER LEAKAGE   PERIOD  1   STEP 12   REACH   2   LAYER  1   ROW   2   COL   4   RATE   42.82170    
0   RIVER LEAKAGE   PERIOD  1   STEP 12   REACH   3   LAYER  1   ROW   3   COL   4   RATE  -.8570340    
0   RIVER LEAKAGE   PERIOD  1   STEP 12   REACH   4   LAYER  1   ROW   4   COL   4   RATE  -42.95662    
0   RIVER LEAKAGE   PERIOD  1   STEP 12   REACH   5   LAYER  1   ROW   5   COL   4   RATE  -76.73032    
0   RIVER LEAKAGE   PERIOD  1   STEP 12   REACH   6   LAYER  1   ROW   6   COL   4   RATE  -99.69746    
0   RIVER LEAKAGE   PERIOD  1   STEP 12   REACH   7   LAYER  1   ROW   7   COL   4   RATE  -111.2168    
1                      HEAD IN LAYER  1 AT END OF TIME STEP 12 IN STRESS PERIOD  1
           -----------------------------------------------------------------------

           1       2       3       4       5       6       7
 ................................................................
0  1   -5.428  -2.769  -1.303   -.371    .153    .482    .642
0  2   -2.787  -1.815   -.913   -.214    .239    .537    .685
0  3   -1.363   -.952   -.449    .004    .373    .627    .757
0  4    -.510   -.320   -.049    .215    .515    .730    .841
0  5     .017    .108    .247    .384    .638    .823    .920
0  6     .327    .371    .438    .498    .725    .892    .980
0  7     .471    .496    .531    .556    .771    .929   1.012
0


                              VOLUMETRIC BUDGET FOR ENTIRE MODEL AT END OF TIME STEP 12 IN STRESS PERIOD  1
                              -----------------------------------------------------------------------------
0                   CUMULATIVE VOLUMES      L**3                                     RATES FOR THIS TIME STEP      L**3/T
                    ------------------                                               ------------------------

                          IN:                                                                    IN:
                          ---                                                                    ---
                            STORAGE =    .49031E+06                                                STORAGE =    2714.3    
                      CONSTANT HEAD =    .00000                                              CONSTANT HEAD =    .00000    
                              WELLS =    .00000                                                      WELLS =    .00000    
                      RIVER LEAKAGE =    1698.5                                              RIVER LEAKAGE =    116.92    
0                          TOTAL IN =    .49201E+06                                               TOTAL IN =    2831.2    
0                        OUT:                                                                   OUT:
                         ----                                                                   ----
                            STORAGE =    .00000                                                    STORAGE =    .00000    
                      CONSTANT HEAD =    .00000                                              CONSTANT HEAD =    .00000    
                              WELLS =    .19346E+06                                                  WELLS =    2500.0    
                      RIVER LEAKAGE =    .29865E+06                                          RIVER LEAKAGE =    331.46    
0                         TOTAL OUT =    .49211E+06                                              TOTAL OUT =    2831.5    
0                          IN - OUT =   -101.09                                                   IN - OUT =   -.26611    
0               PERCENT DISCREPANCY =                -.02                              PERCENT DISCREPANCY =                -.01



0


          TIME SUMMARY AT END OF TIME STEP 12 IN STRESS PERIOD  1
                               SECONDS        MINUTES         HOURS          DAYS           YEARS
                           ---------------------------------------------------------------------------
      TIME STEP LENGTH         .125512E+07    20918.6        348.643        14.5268        .397722E-01
    STRESS PERIOD TIME         .668608E+07    111435.        1857.24        77.3852        .211869    
 TOTAL SIMULATION TIME         .668608E+07    111435.        1857.24        77.3852        .211869    
1
    10 ITERATIONS FOR TIME STEP  13 IN STRESS PERIOD  1
0MAXIMUM HEAD CHANGE FOR EACH ITERATION:
0 HEAD CHANGE LAYER,ROW,COL HEAD CHANGE LAYER,ROW,COL HEAD CHANGE LAYER,ROW,COL HEAD CHANGE LAYER,ROW,COL HEAD CHANGE LAYER,ROW,COL
 ------------------------------------------------------------------------------------------------------------------------------------
   -.2806     (  1,  7,  7)  -.2311     (  1,  1,  7)  -.2161     (  1,  1,  1)  -.1203     (  1,  5,  1)  -.7039E-01 (  1,  1,  1)
   -.4951E-02 (  1,  1,  1)  -.2651E-02 (  1,  7,  7)  -.2220E-02 (  1,  1,  7)  -.1527E-02 (  1,  1,  1)  -.5233E-03 (  1,  1,  7)
0
0HEAD/DRAWDOWN PRINTOUT FLAG = 1     TOTAL BUDGET PRINTOUT FLAG = 1     CELL-BY-CELL FLOW TERM FLAG = 1
 REUSING PREVIOUS VALUES OF IOFLG
0   RIVER LEAKAGE   PERIOD  1   STEP 13   REACH   1   LAYER  1   ROW   1   COL   4   RATE   186.0309    
0   RIVER LEAKAGE   PERIOD  1   STEP 13   REACH   2   LAYER  1   ROW   2   COL   4   RATE   154.3851    
0   RIVER LEAKAGE   PERIOD  1   STEP 13   REACH   3   LAYER  1   ROW   3   COL   4   RATE   110.1903    
0   RIVER LEAKAGE   PERIOD  1   STEP 13   REACH   4   LAYER  1   ROW   4   COL   4   RATE   67.58454    
0   RIVER LEAKAGE   PERIOD  1   STEP 13   REACH   5   LAYER  1   ROW   5   COL   4   RATE   33.39660    
0   RIVER LEAKAGE   PERIOD  1   STEP 13   REACH   6   LAYER  1   ROW   6   COL   4   RATE   10.14249    
0   RIVER LEAKAGE   PERIOD  1   STEP 13   REACH   7   LAYER  1   ROW   7   COL   4   RATE  -1.522855    
1                      HEAD IN LAYER  1 AT END OF TIME STEP 13 IN STRESS PERIOD  1
           -----------------------------------------------------------------------

           1       2       3       4       5       6       7
 ................................................................
0  1   -6.292  -3.543  -1.979   -.930   -.498   -.230   -.102
0  2   -3.600  -2.572  -1.584   -.772   -.410   -.175   -.059
0  3   -2.149  -1.694  -1.112   -.551   -.274   -.083    .015
0  4   -1.280  -1.051   -.706   -.338   -.130    .022    .101
0  5    -.743   -.615   -.405   -.167   -.006    .116    .182
0  6    -.428   -.347   -.211   -.051    .084    .187    .243
0  7    -.281   -.221   -.116    .008    .130    .224    .276
0


                              VOLUMETRIC BUDGET FOR ENTIRE MODEL AT END OF TIME STEP 13 IN STRESS PERIOD  1
                              -----------------------------------------------------------------------------
0                   CUMULATIVE VOLUMES      L**3                                     RATES FOR THIS TIME STEP      L**3/T
                    ------------------                                               ------------------------

                          IN:                                                                    IN:
                          ---                                                                    ---
                            STORAGE =    .52412E+06                                                STORAGE =    1939.4    
                      CONSTANT HEAD =    .00000                                              CONSTANT HEAD =    .00000    
                              WELLS =    .00000                                                      WELLS =    .00000    
                      RIVER LEAKAGE =    11491.                                              RIVER LEAKAGE =    561.73    
0                          TOTAL IN =    .53561E+06                                               TOTAL IN =    2501.1    
0                        OUT:                                                                   OUT:
                         ----                                                                   ----
                            STORAGE =    .00000                                                    STORAGE =    .00000    
                      CONSTANT HEAD =    .00000                                              CONSTANT HEAD =    .00000    
                              WELLS =    .23704E+06                                                  WELLS =    2500.0    
                      RIVER LEAKAGE =    .29867E+06                                          RIVER LEAKAGE =    1.5229    
0                         TOTAL OUT =    .53572E+06                                              TOTAL OUT =    2501.5    
0                          IN - OUT =   -108.75                                                   IN - OUT =   -.44189    
0               PERCENT DISCREPANCY =                -.02                              PERCENT DISCREPANCY =                -.02



0


          TIME SUMMARY AT END OF TIME STEP 13 IN STRESS PERIOD  1
                               SECONDS        MINUTES         HOURS          DAYS           YEARS
                           ---------------------------------------------------------------------------
      TIME STEP LENGTH         .150614E+07    25102.3        418.372        17.4322        .477267E-01
    STRESS PERIOD TIME         .819222E+07    136537.        2275.62        94.8173        .259596    
 TOTAL SIMULATION TIME         .819222E+07    136537.        2275.62        94.8173        .259596    
1
    10 ITERATIONS FOR TIME STEP  14 IN STRESS PERIOD  1
0MAXIMUM HEAD CHANGE FOR EACH ITERATION:
0 HEAD CHANGE LAYER,ROW,COL HEAD CHANGE LAYER,ROW,COL HEAD CHANGE LAYER,ROW,COL HEAD CHANGE LAYER,ROW,COL HEAD CHANGE LAYER,ROW,COL
 ------------------------------------------------------------------------------------------------------------------------------------
   -.2107     (  1,  7,  7)  -.1810     (  1,  1,  7)  -.1784     (  1,  1,  1)  -.1068     (  1,  6,  1)  -.6930E-01 (  1,  1,  1)
   -.5428E-02 (  1,  1,  1)  -.2977E-02 (  1,  7,  7)  -.2647E-02 (  1,  1,  7)  -.2007E-02 (  1,  1,  1)  -.7574E-03 (  1,  1,  7)
0
0HEAD/DRAWDOWN PRINTOUT FLAG = 1     TOTAL BUDGET PRINTOUT FLAG = 1     CELL-BY-CELL FLOW TERM FLAG = 1
 REUSING PREVIOUS VALUES OF IOFLG
0   RIVER LEAKAGE   PERIOD  1   STEP 14   REACH   1   LAYER  1   ROW   1   COL   4   RATE   276.4939    
0   RIVER LEAKAGE   PERIOD  1   STEP 14   REACH   2   LAYER  1   ROW   2   COL   4   RATE   244.5511    
0   RIVER LEAKAGE   PERIOD  1   STEP 14   REACH   3   LAYER  1   ROW   3   COL   4   RATE   199.9387    
0   RIVER LEAKAGE   PERIOD  1   STEP 14   REACH   4   LAYER  1   ROW   4   COL   4   RATE   156.9259    
0   RIVER LEAKAGE   PERIOD  1   STEP 14   REACH   5   LAYER  1   ROW   5   COL   4   RATE   122.4072    
0   RIVER LEAKAGE   PERIOD  1   STEP 14   REACH   6   LAYER  1   ROW   6   COL   4   RATE   98.92546    
0   RIVER LEAKAGE   PERIOD  1   STEP 14   REACH   7   LAYER  1   ROW   7   COL   4   RATE   87.14482    
1                      HEAD IN LAYER  1 AT END OF TIME STEP 14 IN STRESS PERIOD  1
           -----------------------------------------------------------------------

           1       2       3       4       5       6       7
 ................................................................
0  1   -6.998  -4.173  -2.528  -1.382  -1.025   -.809   -.707
0  2   -4.262  -3.189  -2.128  -1.223   -.937   -.753   -.663
0  3   -2.790  -2.298  -1.649  -1.000   -.799   -.660   -.589
0  4   -1.907  -1.645  -1.239   -.785   -.654   -.554   -.501
0  5   -1.362  -1.203   -.934   -.612   -.527   -.458   -.420
0  6   -1.041   -.931   -.737   -.495   -.437   -.386   -.357
0  7    -.892   -.803   -.641   -.436   -.390   -.349   -.324
0


                              VOLUMETRIC BUDGET FOR ENTIRE MODEL AT END OF TIME STEP 14 IN STRESS PERIOD  1
                              -----------------------------------------------------------------------------
0                   CUMULATIVE VOLUMES      L**3                                     RATES FOR THIS TIME STEP      L**3/T
                    ------------------                                               ------------------------

                          IN:                                                                    IN:
                          ---                                                                    ---
                            STORAGE =    .55158E+06                                                STORAGE =    1313.0    
                      CONSTANT HEAD =    .00000                                              CONSTANT HEAD =    .00000    
                              WELLS =    .00000                                                      WELLS =    .00000    
                      RIVER LEAKAGE =    36308.                                              RIVER LEAKAGE =    1186.4    
0                          TOTAL IN =    .58789E+06                                               TOTAL IN =    2499.4    
0                        OUT:                                                                   OUT:
                         ----                                                                   ----
                            STORAGE =    .00000                                                    STORAGE =    .00000    
                      CONSTANT HEAD =    .00000                                              CONSTANT HEAD =    .00000    
                              WELLS =    .28934E+06                                                  WELLS =    2500.0    
                      RIVER LEAKAGE =    .29867E+06                                          RIVER LEAKAGE =    .00000    
0                         TOTAL OUT =    .58801E+06                                              TOTAL OUT =    2500.0    
0                          IN - OUT =   -122.31                                                   IN - OUT =   -.64697    
0               PERCENT DISCREPANCY =                -.02                              PERCENT DISCREPANCY =                -.03



0


          TIME SUMMARY AT END OF TIME STEP 14 IN STRESS PERIOD  1
                               SECONDS        MINUTES         HOURS          DAYS           YEARS
                           ---------------------------------------------------------------------------
      TIME STEP LENGTH         .180737E+07    30122.8        502.046        20.9186        .572720E-01
    STRESS PERIOD TIME         .999958E+07    166660.        2777.66        115.736        .316868    
 TOTAL SIMULATION TIME         .999958E+07    166660.        2777.66        115.736        .316868    
1
    10 ITERATIONS FOR TIME STEP  15 IN STRESS PERIOD  1
0MAXIMUM HEAD CHANGE FOR EACH ITERATION:
0 HEAD CHANGE LAYER,ROW,COL HEAD CHANGE LAYER,ROW,COL HEAD CHANGE LAYER,ROW,COL HEAD CHANGE LAYER,ROW,COL HEAD CHANGE LAYER,ROW,COL
 ------------------------------------------------------------------------------------------------------------------------------------
   -.1488     (  1,  7,  7)  -.1327     (  1,  1,  7)  -.1371     (  1,  1,  1)  -.8795E-01 (  1,  6,  1)  -.6246E-01 (  1,  1,  1)
   -.5346E-02 (  1,  1,  1)  -.3012E-02 (  1,  7,  7)  -.2831E-02 (  1,  1,  7)  -.2336E-02 (  1,  1,  1)  -.9654E-03 (  1,  1,  7)
0
0HEAD/DRAWDOWN PRINTOUT FLAG = 1     TOTAL BUDGET PRINTOUT FLAG = 1     CELL-BY-CELL FLOW TERM FLAG = 1
 REUSING PREVIOUS VALUES OF IOFLG
0   RIVER LEAKAGE   PERIOD  1   STEP 15   REACH   1   LAYER  1   ROW   1   COL   4   RATE   345.3530    
0   RIVER LEAKAGE   PERIOD  1   STEP 15   REACH   2   LAYER  1   ROW   2   COL   4   RATE   313.1804    
0   RIVER LEAKAGE   PERIOD  1   STEP 15   REACH   3   LAYER  1   ROW   3   COL   4   RATE   268.2448    
0   RIVER LEAKAGE   PERIOD  1   STEP 15   REACH   4   LAYER  1   ROW   4   COL   4   RATE   224.9177    
0   RIVER LEAKAGE   PERIOD  1   STEP 15   REACH   5   LAYER  1   ROW   5   COL   4   RATE   190.1440    
0   RIVER LEAKAGE   PERIOD  1   STEP 15   REACH   6   LAYER  1   ROW   6   COL   4   RATE   166.4871    
0   RIVER LEAKAGE   PERIOD  1   STEP 15   REACH   7   LAYER  1   ROW   7   COL   4   RATE   154.6177    
1                      HEAD IN LAYER  1 AT END OF TIME STEP 15 IN STRESS PERIOD  1
           -----------------------------------------------------------------------

           1       2       3       4       5       6       7
 ................................................................
0  1   -7.541  -4.656  -2.947  -1.727  -1.428  -1.252  -1.170
0  2   -4.771  -3.661  -2.543  -1.566  -1.339  -1.195  -1.126
0  3   -3.280  -2.760  -2.060  -1.341  -1.200  -1.101  -1.051
0  4   -2.388  -2.099  -1.645  -1.125  -1.053   -.994   -.962
0  5   -1.836  -1.652  -1.337   -.951   -.926   -.897   -.880
0  6   -1.511  -1.378  -1.139   -.832   -.834   -.825   -.817
0  7   -1.360  -1.247  -1.042   -.773   -.787   -.787   -.783
0


                              VOLUMETRIC BUDGET FOR ENTIRE MODEL AT END OF TIME STEP 15 IN STRESS PERIOD  1
                              -----------------------------------------------------------------------------
0                   CUMULATIVE VOLUMES      L**3                                     RATES FOR THIS TIME STEP      L**3/T
                    ------------------                                               ------------------------

                          IN:                                                                    IN:
                          ---                                                                    ---
                            STORAGE =    .57257E+06                                                STORAGE =    836.22    
                      CONSTANT HEAD =    .00000                                              CONSTANT HEAD =    .00000    
                              WELLS =    .00000                                                      WELLS =    .00000    
                      RIVER LEAKAGE =    78052.                                              RIVER LEAKAGE =    1662.9    
0                          TOTAL IN =    .65063E+06                                               TOTAL IN =    2499.2    
0                        OUT:                                                                   OUT:
                         ----                                                                   ----
                            STORAGE =    .00000                                                    STORAGE =    .00000    
                      CONSTANT HEAD =    .00000                                              CONSTANT HEAD =    .00000    
                              WELLS =    .35210E+06                                                  WELLS =    2500.0    
                      RIVER LEAKAGE =    .29867E+06                                          RIVER LEAKAGE =    .00000    
0                         TOTAL OUT =    .65077E+06                                              TOTAL OUT =    2500.0    
0                          IN - OUT =   -143.25                                                   IN - OUT =   -.83398    
0               PERCENT DISCREPANCY =                -.02                              PERCENT DISCREPANCY =                -.03



0


          TIME SUMMARY AT END OF TIME STEP 15 IN STRESS PERIOD  1
                               SECONDS        MINUTES         HOURS          DAYS           YEARS
                           ---------------------------------------------------------------------------
      TIME STEP LENGTH         .216884E+07    36147.3        602.456        25.1023        .687264E-01
    STRESS PERIOD TIME         .121684E+08    202807.        3380.12        140.838        .385594    
 TOTAL SIMULATION TIME         .121684E+08    202807.        3380.12        140.838        .385594    
1
    11 ITERATIONS FOR TIME STEP  16 IN STRESS PERIOD  1
0MAXIMUM HEAD CHANGE FOR EACH ITERATION:
0 HEAD CHANGE LAYER,ROW,COL HEAD CHANGE LAYER,ROW,COL HEAD CHANGE LAYER,ROW,COL HEAD CHANGE LAYER,ROW,COL HEAD CHANGE LAYER,ROW,COL
 ------------------------------------------------------------------------------------------------------------------------------------
   -.9820E-01 (  1,  7,  7)  -.9051E-01 (  1,  1,  7)  -.9748E-01 (  1,  1,  1)  -.6654E-01 (  1,  6,  1)  -.5127E-01 (  1,  1,  1)
   -.4720E-02 (  1,  1,  1)  -.2736E-02 (  1,  7,  7)  -.2704E-02 (  1,  1,  7)  -.2401E-02 (  1,  1,  1)  -.1080E-02 (  1,  1,  7)
   -.2655E-03 (  1,  1,  1)
0
0HEAD/DRAWDOWN PRINTOUT FLAG = 1     TOTAL BUDGET PRINTOUT FLAG = 1     CELL-BY-CELL FLOW TERM FLAG = 1
 REUSING PREVIOUS VALUES OF IOFLG
0   RIVER LEAKAGE   PERIOD  1   STEP 16   REACH   1   LAYER  1   ROW   1   COL   4   RATE   394.3437    
0   RIVER LEAKAGE   PERIOD  1   STEP 16   REACH   2   LAYER  1   ROW   2   COL   4   RATE   362.0050    
0   RIVER LEAKAGE   PERIOD  1   STEP 16   REACH   3   LAYER  1   ROW   3   COL   4   RATE   316.8357    
0   RIVER LEAKAGE   PERIOD  1   STEP 16   REACH   4   LAYER  1   ROW   4   COL   4   RATE   273.2813    
0   RIVER LEAKAGE   PERIOD  1   STEP 16   REACH   5   LAYER  1   ROW   5   COL   4   RATE   238.3236    
0   RIVER LEAKAGE   PERIOD  1   STEP 16   REACH   6   LAYER  1   ROW   6   COL   4   RATE   214.5407    
0   RIVER LEAKAGE   PERIOD  1   STEP 16   REACH   7   LAYER  1   ROW   7   COL   4   RATE   202.6099    
1                      HEAD IN LAYER  1 AT END OF TIME STEP 16 IN STRESS PERIOD  1
           -----------------------------------------------------------------------

           1       2       3       4       5       6       7
 ................................................................
0  1   -7.930  -5.002  -3.246  -1.972  -1.715  -1.568  -1.501
0  2   -5.134  -3.998  -2.839  -1.810  -1.625  -1.511  -1.457
0  3   -3.631  -3.090  -2.353  -1.584  -1.486  -1.416  -1.380
0  4   -2.731  -2.424  -1.935  -1.366  -1.338  -1.308  -1.291
0  5   -2.174  -1.973  -1.625  -1.192  -1.209  -1.211  -1.208
0  6   -1.847  -1.696  -1.425  -1.073  -1.118  -1.138  -1.145
0  7   -1.694  -1.565  -1.327  -1.013  -1.070  -1.099  -1.111
0


                              VOLUMETRIC BUDGET FOR ENTIRE MODEL AT END OF TIME STEP 16 IN STRESS PERIOD  1
                              -----------------------------------------------------------------------------
0                   CUMULATIVE VOLUMES      L**3                                     RATES FOR THIS TIME STEP      L**3/T
                    ------------------                                               ------------------------

                          IN:                                                                    IN:
                          ---                                                                    ---
                            STORAGE =    .58756E+06                                                STORAGE =    497.31    
                      CONSTANT HEAD =    .00000                                              CONSTANT HEAD =    .00000    
                              WELLS =    .00000                                                      WELLS =    .00000    
                      RIVER LEAKAGE =    .13836E+06                                          RIVER LEAKAGE =    2001.9    
0                          TOTAL IN =    .72591E+06                                               TOTAL IN =    2499.3    
0                        OUT:                                                                   OUT:
                         ----                                                                   ----
                            STORAGE =    .00000                                                    STORAGE =    .00000    
                      CONSTANT HEAD =    .00000                                              CONSTANT HEAD =    .00000    
                              WELLS =    .42740E+06                                                  WELLS =    2500.0    
                      RIVER LEAKAGE =    .29867E+06                                          RIVER LEAKAGE =    .00000    
0                         TOTAL OUT =    .72608E+06                                              TOTAL OUT =    2500.0    
0                          IN - OUT =   -165.69                                                   IN - OUT =   -.74585    
0               PERCENT DISCREPANCY =                -.02                              PERCENT DISCREPANCY =                -.03



0


          TIME SUMMARY AT END OF TIME STEP 16 IN STRESS PERIOD  1
                               SECONDS        MINUTES         HOURS          DAYS           YEARS
                           ---------------------------------------------------------------------------
      TIME STEP LENGTH         .260261E+07    43376.8        722.947        30.1228        .824717E-01
    STRESS PERIOD TIME         .147710E+08    246184.        4103.06        170.961        .468066    
 TOTAL SIMULATION TIME         .147710E+08    246184.        4103.06        170.961        .468066    
1
    11 ITERATIONS FOR TIME STEP  17 IN STRESS PERIOD  1
0MAXIMUM HEAD CHANGE FOR EACH ITERATION:
0 HEAD CHANGE LAYER,ROW,COL HEAD CHANGE LAYER,ROW,COL HEAD CHANGE LAYER,ROW,COL HEAD CHANGE LAYER,ROW,COL HEAD CHANGE LAYER,ROW,COL
 ------------------------------------------------------------------------------------------------------------------------------------
   -.6011E-01 (  1,  7,  7)  -.5830E-01 (  1,  1,  7)  -.6599E-01 (  1,  1,  1)  -.5013E-01 (  1,  1,  7)  -.4139E-01 (  1,  1,  1)
   -.4368E-02 (  1,  1,  1)  -.2990E-02 (  1,  1,  1)  -.3015E-02 (  1,  1,  7)  -.2981E-02 (  1,  1,  1)  -.1507E-02 (  1,  1,  7)
   -.3542E-03 (  1,  1,  1)
0
0HEAD/DRAWDOWN PRINTOUT FLAG = 1     TOTAL BUDGET PRINTOUT FLAG = 1     CELL-BY-CELL FLOW TERM FLAG = 1
 REUSING PREVIOUS VALUES OF IOFLG
0   RIVER LEAKAGE   PERIOD  1   STEP 17   REACH   1   LAYER  1   ROW   1   COL   4   RATE   400.0000    
0   RIVER LEAKAGE   PERIOD  1   STEP 17   REACH   2   LAYER  1   ROW   2   COL   4   RATE   398.1881    
0   RIVER LEAKAGE   PERIOD  1   STEP 17   REACH   3   LAYER  1   ROW   3   COL   4   RATE   351.2326    
0   RIVER LEAKAGE   PERIOD  1   STEP 17   REACH   4   LAYER  1   ROW   4   COL   4   RATE   306.7542    
0   RIVER LEAKAGE   PERIOD  1   STEP 17   REACH   5   LAYER  1   ROW   5   COL   4   RATE   271.2564    
0   RIVER LEAKAGE   PERIOD  1   STEP 17   REACH   6   LAYER  1   ROW   6   COL   4   RATE   247.1612    
0   RIVER LEAKAGE   PERIOD  1   STEP 17   REACH   7   LAYER  1   ROW   7   COL   4   RATE   235.0861    
1                      HEAD IN LAYER  1 AT END OF TIME STEP 17 IN STRESS PERIOD  1
           -----------------------------------------------------------------------

           1       2       3       4       5       6       7
 ................................................................
0  1   -8.206  -5.250  -3.470  -2.175  -1.930  -1.796  -1.736
0  2   -5.390  -4.237  -3.053  -1.991  -1.832  -1.735  -1.689
0  3   -3.875  -3.321  -2.559  -1.756  -1.687  -1.636  -1.610
0  4   -2.967  -2.648  -2.135  -1.534  -1.534  -1.525  -1.518
0  5   -2.405  -2.193  -1.822  -1.356  -1.404  -1.425  -1.433
0  6   -2.075  -1.913  -1.619  -1.236  -1.310  -1.350  -1.368
0  7   -1.921  -1.780  -1.521  -1.175  -1.262  -1.311  -1.333
0


                              VOLUMETRIC BUDGET FOR ENTIRE MODEL AT END OF TIME STEP 17 IN STRESS PERIOD  1
                              -----------------------------------------------------------------------------
0                   CUMULATIVE VOLUMES      L**3                                     RATES FOR THIS TIME STEP      L**3/T
                    ------------------                                               ------------------------

                          IN:                                                                    IN:
                          ---                                                                    ---
                            STORAGE =    .59801E+06                                                STORAGE =    289.19    
                      CONSTANT HEAD =    .00000                                              CONSTANT HEAD =    .00000    
                              WELLS =    .00000                                                      WELLS =    .00000    
                      RIVER LEAKAGE =    .21823E+06                                          RIVER LEAKAGE =    2209.7    
0                          TOTAL IN =    .81624E+06                                               TOTAL IN =    2498.9    
0                        OUT:                                                                   OUT:
                         ----                                                                   ----
                            STORAGE =    .00000                                                    STORAGE =    .00000    
                      CONSTANT HEAD =    .00000                                              CONSTANT HEAD =    .00000    
                              WELLS =    .51777E+06                                                  WELLS =    2500.0    
                      RIVER LEAKAGE =    .29867E+06                                          RIVER LEAKAGE =    .00000    
0                         TOTAL OUT =    .81645E+06                                              TOTAL OUT =    2500.0    
0                          IN - OUT =   -206.75                                                   IN - OUT =   -1.1343    
0               PERCENT DISCREPANCY =                -.03                              PERCENT DISCREPANCY =                -.05



0


          TIME SUMMARY AT END OF TIME STEP 17 IN STRESS PERIOD  1
                               SECONDS        MINUTES         HOURS          DAYS           YEARS
                           ---------------------------------------------------------------------------
      TIME STEP LENGTH         .312313E+07    52052.2        867.536        36.1474        .989660E-01
    STRESS PERIOD TIME         .178942E+08    298236.        4970.60        207.108        .567032    
 TOTAL SIMULATION TIME         .178942E+08    298236.        4970.60        207.108        .567032    
1
    11 ITERATIONS FOR TIME STEP  18 IN STRESS PERIOD  1
0MAXIMUM HEAD CHANGE FOR EACH ITERATION:
0 HEAD CHANGE LAYER,ROW,COL HEAD CHANGE LAYER,ROW,COL HEAD CHANGE LAYER,ROW,COL HEAD CHANGE LAYER,ROW,COL HEAD CHANGE LAYER,ROW,COL
 ------------------------------------------------------------------------------------------------------------------------------------
   -.3645E-01 (  1,  1,  1)  -.3775E-01 (  1,  1,  7)  -.4548E-01 (  1,  1,  1)  -.3878E-01 (  1,  1,  7)  -.3539E-01 (  1,  1,  1)
   -.4050E-02 (  1,  1,  1)  -.3107E-02 (  1,  1,  1)  -.3100E-02 (  1,  1,  3)  -.3490E-02 (  1,  1,  1)  -.2099E-02 (  1,  1,  3)
   -.5130E-03 (  1,  1,  1)
0
0HEAD/DRAWDOWN PRINTOUT FLAG = 1     TOTAL BUDGET PRINTOUT FLAG = 1     CELL-BY-CELL FLOW TERM FLAG = 1
 REUSING PREVIOUS VALUES OF IOFLG
0   RIVER LEAKAGE   PERIOD  1   STEP 18   REACH   1   LAYER  1   ROW   1   COL   4   RATE   400.0000    
0   RIVER LEAKAGE   PERIOD  1   STEP 18   REACH   2   LAYER  1   ROW   2   COL   4   RATE   400.0000    
0   RIVER LEAKAGE   PERIOD  1   STEP 18   REACH   3   LAYER  1   ROW   3   COL   4   RATE   377.0131    
0   RIVER LEAKAGE   PERIOD  1   STEP 18   REACH   4   LAYER  1   ROW   4   COL   4   RATE   330.5125    
0   RIVER LEAKAGE   PERIOD  1   STEP 18   REACH   5   LAYER  1   ROW   5   COL   4   RATE   293.9439    
0   RIVER LEAKAGE   PERIOD  1   STEP 18   REACH   6   LAYER  1   ROW   6   COL   4   RATE   269.2578    
0   RIVER LEAKAGE   PERIOD  1   STEP 18   REACH   7   LAYER  1   ROW   7   COL   4   RATE   256.9148    
1                      HEAD IN LAYER  1 AT END OF TIME STEP 18 IN STRESS PERIOD  1
           -----------------------------------------------------------------------

           1       2       3       4       5       6       7
 ................................................................
0  1   -8.405  -5.433  -3.641  -2.337  -2.094  -1.963  -1.906
0  2   -5.574  -4.412  -3.216  -2.143  -1.990  -1.899  -1.856
0  3   -4.048  -3.485  -2.709  -1.885  -1.834  -1.793  -1.773
0  4   -3.131  -2.804  -2.277  -1.653  -1.673  -1.677  -1.676
0  5   -2.564  -2.343  -1.957  -1.470  -1.537  -1.572  -1.586
0  6   -2.229  -2.060  -1.751  -1.346  -1.441  -1.494  -1.519
0  7   -2.073  -1.925  -1.651  -1.285  -1.391  -1.454  -1.483
0


                              VOLUMETRIC BUDGET FOR ENTIRE MODEL AT END OF TIME STEP 18 IN STRESS PERIOD  1
                              -----------------------------------------------------------------------------
0                   CUMULATIVE VOLUMES      L**3                                     RATES FOR THIS TIME STEP      L**3/T
                    ------------------                                               ------------------------

                          IN:                                                                    IN:
                          ---                                                                    ---
                            STORAGE =    .60542E+06                                                STORAGE =    170.77    
                      CONSTANT HEAD =    .00000                                              CONSTANT HEAD =    .00000    
                              WELLS =    .00000                                                      WELLS =    .00000    
                      RIVER LEAKAGE =    .31920E+06                                          RIVER LEAKAGE =    2327.6    
0                          TOTAL IN =    .92461E+06                                               TOTAL IN =    2498.4    
0                        OUT:                                                                   OUT:
                         ----                                                                   ----
                            STORAGE =    .00000                                                    STORAGE =    .00000    
                      CONSTANT HEAD =    .00000                                              CONSTANT HEAD =    .00000    
                              WELLS =    .62621E+06                                                  WELLS =    2500.0    
                      RIVER LEAKAGE =    .29867E+06                                          RIVER LEAKAGE =    .00000    
0                         TOTAL OUT =    .92489E+06                                              TOTAL OUT =    2500.0    
0                          IN - OUT =   -275.56                                                   IN - OUT =   -1.5864    
0               PERCENT DISCREPANCY =                -.03                              PERCENT DISCREPANCY =                -.06



0


          TIME SUMMARY AT END OF TIME STEP 18 IN STRESS PERIOD  1
                               SECONDS        MINUTES         HOURS          DAYS           YEARS
                           ---------------------------------------------------------------------------
      TIME STEP LENGTH         .374776E+07    62462.6        1041.04        43.3768        .118759    
    STRESS PERIOD TIME         .216419E+08    360699.        6011.65        250.485        .685791    
 TOTAL SIMULATION TIME         .216419E+08    360699.        6011.65        250.485        .685791    
1
    11 ITERATIONS FOR TIME STEP  19 IN STRESS PERIOD  1
0MAXIMUM HEAD CHANGE FOR EACH ITERATION:
0 HEAD CHANGE LAYER,ROW,COL HEAD CHANGE LAYER,ROW,COL HEAD CHANGE LAYER,ROW,COL HEAD CHANGE LAYER,ROW,COL HEAD CHANGE LAYER,ROW,COL
 ------------------------------------------------------------------------------------------------------------------------------------
   -.2271E-01 (  1,  1,  1)  -.2421E-01 (  1,  1,  7)  -.2962E-01 (  1,  1,  1)  -.2631E-01 (  1,  1,  7)  -.2534E-01 (  1,  1,  1)
   -.3021E-02 (  1,  1,  1)  -.2402E-02 (  1,  1,  1)  -.2458E-02 (  1,  1,  3)  -.2898E-02 (  1,  1,  1)  -.1871E-02 (  1,  1,  3)
   -.4626E-03 (  1,  1,  1)
0
0HEAD/DRAWDOWN PRINTOUT FLAG = 1     TOTAL BUDGET PRINTOUT FLAG = 1     CELL-BY-CELL FLOW TERM FLAG = 1
 REUSING PREVIOUS VALUES OF IOFLG
0   RIVER LEAKAGE   PERIOD  1   STEP 19   REACH   1   LAYER  1   ROW   1   COL   4   RATE   400.0000    
0   RIVER LEAKAGE   PERIOD  1   STEP 19   REACH   2   LAYER  1   ROW   2   COL   4   RATE   400.0000    
0   RIVER LEAKAGE   PERIOD  1   STEP 19   REACH   3   LAYER  1   ROW   3   COL   4   RATE   394.3372    
0   RIVER LEAKAGE   PERIOD  1   STEP 19   REACH   4   LAYER  1   ROW   4   COL   4   RATE   346.2690    
0   RIVER LEAKAGE   PERIOD  1   STEP 19   REACH   5   LAYER  1   ROW   5   COL   4   RATE   308.8331    
0   RIVER LEAKAGE   PERIOD  1   STEP 19   REACH   6   LAYER  1   ROW   6   COL   4   RATE   283.6522    
0   RIVER LEAKAGE   PERIOD  1   STEP 19   REACH   7   LAYER  1   ROW   7   COL   4   RATE   271.0792    
1                      HEAD IN LAYER  1 AT END OF TIME STEP 19 IN STRESS PERIOD  1
           -----------------------------------------------------------------------

           1       2       3       4       5       6       7
 ................................................................
0  1   -8.539  -5.556  -3.757  -2.448  -2.205  -2.076  -2.020
0  2   -5.697  -4.529  -3.326  -2.247  -2.097  -2.009  -1.968
0  3   -4.163  -3.595  -2.810  -1.972  -1.932  -1.898  -1.881
0  4   -3.240  -2.908  -2.370  -1.731  -1.765  -1.777  -1.780
0  5   -2.667  -2.442  -2.046  -1.544  -1.625  -1.668  -1.687
0  6   -2.330  -2.155  -1.837  -1.418  -1.526  -1.588  -1.617
0  7   -2.172  -2.019  -1.735  -1.355  -1.474  -1.546  -1.580
0


                              VOLUMETRIC BUDGET FOR ENTIRE MODEL AT END OF TIME STEP 19 IN STRESS PERIOD  1
                              -----------------------------------------------------------------------------
0                   CUMULATIVE VOLUMES      L**3                                     RATES FOR THIS TIME STEP      L**3/T
                    ------------------                                               ------------------------

                          IN:                                                                    IN:
                          ---                                                                    ---
                            STORAGE =    .61033E+06                                                STORAGE =    94.378    
                      CONSTANT HEAD =    .00000                                              CONSTANT HEAD =    .00000    
                              WELLS =    .00000                                                      WELLS =    .00000    
                      RIVER LEAKAGE =    .44434E+06                                          RIVER LEAKAGE =    2404.2    
0                          TOTAL IN =    .10547E+07                                               TOTAL IN =    2498.5    
0                        OUT:                                                                   OUT:
                         ----                                                                   ----
                            STORAGE =    .00000                                                    STORAGE =    .00000    
                      CONSTANT HEAD =    .00000                                              CONSTANT HEAD =    .00000    
                              WELLS =    .75634E+06                                                  WELLS =    2500.0    
                      RIVER LEAKAGE =    .29867E+06                                          RIVER LEAKAGE =    .00000    
0                         TOTAL OUT =    .10550E+07                                              TOTAL OUT =    2500.0    
0                          IN - OUT =   -351.13                                                   IN - OUT =   -1.4512    
0               PERCENT DISCREPANCY =                -.03                              PERCENT DISCREPANCY =                -.06



0


          TIME SUMMARY AT END OF TIME STEP 19 IN STRESS PERIOD  1
                               SECONDS        MINUTES         HOURS          DAYS           YEARS
                           ---------------------------------------------------------------------------
      TIME STEP LENGTH         .449731E+07    74955.1        1249.25        52.0522        .142511    
    STRESS PERIOD TIME         .261392E+08    435654.        7260.90        302.537        .828302    
 TOTAL SIMULATION TIME         .261392E+08    435654.        7260.90        302.537        .828302    
1
    11 ITERATIONS FOR TIME STEP  20 IN STRESS PERIOD  1
0MAXIMUM HEAD CHANGE FOR EACH ITERATION:
0 HEAD CHANGE LAYER,ROW,COL HEAD CHANGE LAYER,ROW,COL HEAD CHANGE LAYER,ROW,COL HEAD CHANGE LAYER,ROW,COL HEAD CHANGE LAYER,ROW,COL
 ------------------------------------------------------------------------------------------------------------------------------------
   -.1296E-01 (  1,  1,  1)  -.1407E-01 (  1,  1,  7)  -.1756E-01 (  1,  1,  1)  -.1625E-01 (  1,  1,  7)  -.1833E-01 (  1,  1,  1)
   -.2274E-02 (  1,  1,  7)  -.1880E-02 (  1,  1,  1)  -.2152E-02 (  1,  1,  3)  -.2801E-02 (  1,  1,  1)  -.2089E-02 (  1,  1,  7)
   -.5359E-03 (  1,  1,  1)
0
0HEAD/DRAWDOWN PRINTOUT FLAG = 1     TOTAL BUDGET PRINTOUT FLAG = 1     CELL-BY-CELL FLOW TERM FLAG = 1
 REUSING PREVIOUS VALUES OF IOFLG
0   RIVER LEAKAGE   PERIOD  1   STEP 20   REACH   1   LAYER  1   ROW   1   COL   4   RATE   400.0000    
0   RIVER LEAKAGE   PERIOD  1   STEP 20   REACH   2   LAYER  1   ROW   2   COL   4   RATE   400.0000    
0   RIVER LEAKAGE   PERIOD  1   STEP 20   REACH   3   LAYER  1   ROW   3   COL   4   RATE   400.0000    
0   RIVER LEAKAGE   PERIOD  1   STEP 20   REACH   4   LAYER  1   ROW   4   COL   4   RATE   356.6165    
0   RIVER LEAKAGE   PERIOD  1   STEP 20   REACH   5   LAYER  1   ROW   5   COL   4   RATE   318.3821    
0   RIVER LEAKAGE   PERIOD  1   STEP 20   REACH   6   LAYER  1   ROW   6   COL   4   RATE   292.7737    
0   RIVER LEAKAGE   PERIOD  1   STEP 20   REACH   7   LAYER  1   ROW   7   COL   4   RATE   280.0078    
1                      HEAD IN LAYER  1 AT END OF TIME STEP 20 IN STRESS PERIOD  1
           -----------------------------------------------------------------------

           1       2       3       4       5       6       7
 ................................................................
0  1   -8.626  -5.636  -3.832  -2.520  -2.278  -2.150  -2.094
0  2   -5.776  -4.605  -3.398  -2.315  -2.167  -2.080  -2.041
0  3   -4.236  -3.666  -2.876  -2.032  -1.997  -1.966  -1.950
0  4   -3.309  -2.974  -2.431  -1.783  -1.825  -1.841  -1.847
0  5   -2.733  -2.504  -2.103  -1.592  -1.681  -1.730  -1.751
0  6   -2.393  -2.216  -1.891  -1.464  -1.579  -1.648  -1.679
0  7   -2.234  -2.078  -1.788  -1.400  -1.527  -1.604  -1.641
0


                              VOLUMETRIC BUDGET FOR ENTIRE MODEL AT END OF TIME STEP 20 IN STRESS PERIOD  1
                              -----------------------------------------------------------------------------
0                   CUMULATIVE VOLUMES      L**3                                     RATES FOR THIS TIME STEP      L**3/T
                    ------------------                                               ------------------------

                          IN:                                                                    IN:
                          ---                                                                    ---
                            STORAGE =    .61349E+06                                                STORAGE =    50.572    
                      CONSTANT HEAD =    .00000                                              CONSTANT HEAD =    .00000    
                              WELLS =    .00000                                                      WELLS =    .00000    
                      RIVER LEAKAGE =    .59723E+06                                          RIVER LEAKAGE =    2447.8    
0                          TOTAL IN =    .12107E+07                                               TOTAL IN =    2498.4    
0                        OUT:                                                                   OUT:
                         ----                                                                   ----
                            STORAGE =    .00000                                                    STORAGE =    .00000    
                      CONSTANT HEAD =    .00000                                              CONSTANT HEAD =    .00000    
                              WELLS =    .91250E+06                                                  WELLS =    2500.0    
                      RIVER LEAKAGE =    .29867E+06                                          RIVER LEAKAGE =    .00000    
0                         TOTAL OUT =    .12112E+07                                              TOTAL OUT =    2500.0    
0                          IN - OUT =   -453.88                                                   IN - OUT =   -1.6482    
0               PERCENT DISCREPANCY =                -.04                              PERCENT DISCREPANCY =                -.07



0


          TIME SUMMARY AT END OF TIME STEP 20 IN STRESS PERIOD  1
                               SECONDS        MINUTES         HOURS          DAYS           YEARS
                           ---------------------------------------------------------------------------
      TIME STEP LENGTH         .539677E+07    89946.2        1499.10        62.4626        .171013    
    STRESS PERIOD TIME         .315360E+08    525600.        8760.00        365.000        .999316    
 TOTAL SIMULATION TIME         .315360E+08    525600.        8760.00        365.000        .999316    
1
