1                    U.S. GEOLOGICAL SURVEY MODULAR FINITE-DIFFERENCE GROUND-WATER MODEL
0Musquodoboit Harbor problem                                                     1/6/92   pfa                                    
    1 LAYERS        44 ROWS        55 COLUMNS
   1 STRESS PERIOD(S) IN SIMULATION
 MODEL TIME UNIT IS SECONDS
0I/O UNITS:
 ELEMENT OF IUNIT:  1  2  3  4  5  6  7  8  9 10 11 12 13 14 15 16 17 18 19 20 21 22 23 24
         I/O UNIT: 11 12  0 14  0  0  0  0 19  0  0 22  0  0  0  0  0  0  0  0  0  0  0  0
0BAS1 -- BASIC MODEL PACKAGE, VERSION 1, 9/1/87 INPUT READ FROM UNIT  1
 ARRAYS RHS AND BUFF WILL SHARE MEMORY.
 START HEAD WILL BE SAVED
    21883 ELEMENTS IN X ARRAY ARE USED BY BAS
    21883 ELEMENTS OF X ARRAY USED OUT OF   80000
0BCF1 -- BLOCK-CENTERED FLOW PACKAGE, VERSION 1, 9/1/87 INPUT READ FROM UNIT 11
 TRANSIENT SIMULATION
      LAYER  AQUIFER TYPE
      -------------------
         1         0
     2421 ELEMENTS IN X ARRAY ARE USED BY BCF
    24304 ELEMENTS OF X ARRAY USED OUT OF   80000
0WEL1 -- WELL PACKAGE, VERSION 1, 9/1/87 INPUT READ FROM 12
 MAXIMUM OF    1 WELLS
        4 ELEMENTS IN X ARRAY ARE USED FOR WELLS
    24308 ELEMENTS OF X ARRAY USED OUT OF   80000
0RIV1 -- RIVER PACKAGE, VERSION 1, 9/1/87 INPUT READ FROM UNIT 14
 MAXIMUM OF   49 RIVER NODES
      294 ELEMENTS IN X ARRAY ARE USED FOR RIVERS
    24602 ELEMENTS OF X ARRAY USED OUT OF   80000
0SIP1 -- STRONGLY IMPLICIT PROCEDURE SOLUTION PACKAGE, VERSION 1, 9/1/87 INPUT READ FROM UNIT 19
 MAXIMUM OF  50 ITERATIONS ALLOWED FOR CLOSURE
  5 ITERATION PARAMETERS
     9885 ELEMENTS IN X ARRAY ARE USED BY SIP
    34487 ELEMENTS OF X ARRAY USED OUT OF   80000
1Musquodoboit Harbor problem                                                     1/6/92   pfa                                    
0


                                        BOUNDARY ARRAY FOR LAYER  1 WILL BE READ ON UNIT  1 USING FORMAT: (40I2)              
                              ------------------------------------------------------------------------------------------------

      1 2 3 4 5 6 7 8 910111213141516171819202122232425262728293031323334353637383940414243444546474849505152535455
 .......................................................................................................................
0  1  0 0 0 0 0 0 0 0 0 0 0 0 0 0 0 0 0 0 0 0 0 0 0 1 1 0 0 0 0 0 0 0 0 0 0 0 0 0 0 0 0 0 0 0 0 0 0 0 0 0 0 0 0 0 0
0  2  0 0 0 0 0 0 0 0 0 0 0 0 0 0 0 0 0 0 0 0 0 0 0 1 1 1 0 0 0 0 0 0 0 0 0 0 0 0 0 0 0 0 0 0 0 0 0 0 0 0 0 0 0 0 0
0  3  0 0 0 0 0 0 0 0 0 0 0 0 0 0 0 0 0 0 0 0 0 0 0 1 1 1 1 1 0 0 0 0 0 0 0 0 0 0 0 0 0 0 0 0 0 0 0 0 0 0 0 0 0 0 0
0  4  0 0 0 0 0 0 0 0 0 0 0 0 0 0 0 0 0 0 0 0 0 0 0 0 1 1 1 1 1 0 0 0 0 0 0 0 0 0 0 0 0 0 0 0 0 0 0 0 0 0 0 0 0 0 0
0  5  0 0 0 0 0 0 0 0 0 0 0 0 0 0 0 0 0 0 0 0 0 0 0 0 1 1 1 1 1 1 1 0 0 0 0 1 1 0 0 0 0 0 0 0 0 0 0 0 0 0 0 0 0 0 0
0  6  0 0 0 0 0 0 0 0 0 0 0 0 0 0 0 0 0 0 0 0 0 0 0 0 0 1 1 1 1 1 1 1 1 1 1 1 1 1 1 1 1 1 1 1 0 0 0 0 0 0 0 0 0 0 0
0  7  0 0 0 0 0 0 0 0 0 0 0 0 0 0 0 0 0 0 0 0 0 0 0 0 0 0 1 1 1 1 1 1 1 1 1 1 1 1 1 1 1 1 1 1 0 0 0 0 0 0 0 0 0 0 0
0  8  0 0 0 0 0 0 0 0 0 0 0 0 0 0 0 0 0 0 0 0 0 0 0 0 0 0 1 1 1 1 1 1 1 1 1 1 1 1 1 1 1 1 1 1 1 1 1 1 1 0 0 0 0 0 0
0  9  0 0 0 0 0 0 0 0 0 0 0 0 0 0 0 0 0 0 0 0 0 1 1 1 1 1 1 1 1 1 1 1 1 1 1 1 1 1 1 1 1 1 1 1 1 1 1 1 1 1 1 0 0 0 0
0 10  0 0 0 0 0 0 0 0 0 0 0 0 0 0 0 0 0 0 0 0 0 1 1 1 1 1 1 1 1 1 1 1 1 1 1 1 1 1 1 1 1 1 1 1 1 1 1 1 1 1 1 0 0 0 0
0 11  0 0 0 0 0 0 0 0 0 0 0 0 0 0 0 0 0 0 0 0 1 1 1 1 1 1 1 1 1 1 1 1 1 1 1 1 1 1 1 1 1 1 1 1 1 1 0 0 0 0 0 0 0 0 0
0 12  0 0 0 0 0 0 0 0 0 0 0 0 0 0 0 0 0 0 0 0 1 1 1 1 1 1 1 1 1 1 1 1 1 1 1 1 1 1 0 0 0 0 0 0 0 0 0 0 0 0 0 0 0 0 0
0 13  0 0 0 0 0 0 0 0 0 0 0 0 0 0 0 0 0 0 1 1 1 1 1 1 1 1 1 1 1 1 1 1 1 1 1 1 1 1 0 0 0 0 0 0 0 0 0 0 0 0 0 0 0 0 0
0 14  0 0 0 0 0 0 0 0 0 0 0 0 0 0 0 0 0 1 1 1 1 1 1 1 1 1 1 1 1 1 1 1 1 1 1 1 1 1 0 0 0 0 0 0 0 0 0 0 0 0 0 0 0 0 0
0 15  0 0 0 0 0 0 1 1 0 0 0 1 1 0 0 1 1 1 1 1 1 1 1 1 1 1 1 1 1 1 1 1 1 1 1 1 1 0 0 0 0 0 0 0 0 0 0 0 0 0 0 0 0 0 0
0 16  0 0 0 1 1 1 1 1 0 1 1 1 1 1 1 1 1 1 1 1 1 1 1 1 1 1 1 1 1 1 1 1 1 1 1 1 0 0 0 0 0 0 0 0 0 0 0 0 0 0 0 0 0 0 0
0 17  1 1 1 1 1 1 1 1 1 1 1 1 1 1 1 1 1 1 1 1 1 1 1 1 1 1 1 1 1 1 1 1 1 1 1 0 0 0 0 0 0 0 0 0 0 0 0 0 0 0 0 0 0 0 0
0 18  1 1 1 1 1 1 1 1 1 1 1 1 1 1 1 1 1 1 1 1 1 1 1 1 1 1 1 1 1 1 1 1 1 1 1 1 0 0 0 0 0 0 0 0 0 0 0 0 0 0 0 0 0 0 0
0 19  0 0 1 1 1 1 1 1 1 1 1 1 1 1 1 1 1 1 1 1 1 1 1 1 1 1 1 1 1 1 1 1 1 1 1 1 1 0 0 0 0 0 0 0 0 0 0 0 0 0 0 0 0 0 0
0 20  0 0 0 0 1 1 1 1 1 1 1 1 1 1 1 1 1 1 1 1 1 1 1 1 1 1 1 1 1 1 1 1 1 1 1 1 1 0 0 0 0 0 0 0 0 0 0 0 0 0 0 0 0 0 0
0 21  0 0 0 0 0 0 1 1 1 1 1 1 1 1 1 1 1 1 1 1 1 1 1 1 1 1 1 1 1 1 1 1 1 1 1 1 1 0 0 0 0 0 0 0 0 0 0 0 0 0 0 0 0 0 0
0 22  0 0 0 0 0 0 0 0 0 1 1 1 1 1 1 1 1 1 1 1 1 1 1 1 1 1 1 1 1 1 1 1 1 1 1 1 1 0 0 0 0 0 0 0 0 0 0 0 0 0 0 0 0 0 0
0 23  0 0 0 0 0 0 0 0 0 0 1 1 1 1 1 1 1 1 1 1 1 1 1 1 1 1 1 1 1 1 1 1 1 1 1 1 0 0 0 0 0 0 0 0 0 0 0 0 0 0 0 0 0 0 0
0 24  0 0 0 0 0 0 0 0 0 0 0 1 1 1 1 1 1 1 1 1 1 1 1 1 1 1 1 1 1 1 1 1 1 1 1 1 0 0 0 0 0 0 0 0 1 1 1 1 1 1 1 0 0 0 0
0 25  0 0 0 0 0 0 0 0 0 0 0 0 1 1 1 1 1 1 1 1 1 1 1 1 1 1 1 1 1 1 1 1 1 1 1 1 1 1 1 1 1 1 1 1 1 1 1 1 1 1 1 1 0 0 0
0 26  0 0 0 0 0 0 0 0 0 0 0 0 0 0 1 1 1 1 1 1 1 1 1 1 1 1 1 1 1 1 1 1 1 1 1 1 1 1 1 1 1 1 1 1 1 1 1 1 1 1 1 1 1 0 0
0 27  0 0 0 0 0 0 0 0 0 0 0 0 0 0 0 0 0 1 1 1 1 1 1 1 1 1 1 1 1 1 1 1 1 1 1 1 1 1 1 1 1 1 1 1 1 1 1 1 1 1 1 1 1 1 0
0 28  0 0 0 0 0 0 0 0 0 0 0 0 0 0 0 0 0 0 0 1 1 1 1 1 1 1 1 1 1 1 1 1 1 1 1 1 1 1 1 1 1 1 1 1 1 1 1 1 1 1 1 1 1 1 1
0 29  0 0 0 0 0 0 0 0 0 0 0 0 0 0 0 0 0 0 1 1 1 1 1 1 1 1 1 1 1 1 1 1 1 1 1 1 1 1 1 1 1 1 1 1 1 1 1 1 1 1 1 1 1 1 1
0 30  0 0 0 0 0 0 0 0 0 0 0 0 0 0 0 0 0 0 1 1 1 1 1 1 1 1 1 1 1 1 1 1 1 1 1 1 1 1 1 1 1 1 1 1 1 1 1 1 1 1 1 1 1 1 0
0 31  0 0 0 0 0 0 0 0 0 0 0 0 0 0 0 0 0 0 1 1 1 1 1 1 1 1 1 1 1 1 1 1 1 1 1 1 1 1 1 1 1 1 1 1 1 1 1 1 1 1 1 0 0 0 0
0 32  0 0 0 0 0 0 0 0 0 0 0 0 0 0 0 0 0 0 0 1 1 1 1 1 1 1 1 1 1 1 1 1 1 1 1 1 1 1 1 1 1 1 1 1 1 1 1 1 1 0 0 0 0 0 0
0 33  0 0 0 0 0 0 0 0 0 0 0 0 0 0 0 0 0 0 0 1 1 1 1 1 1 1 1 1 1 1 1 1 1 1 1 1 1 1 1 1 1 1 1 1 1 1 1 1 1 0 0 0 0 0 0
0 34  0 0 0 0 0 0 0 0 0 0 0 0 0 0 0 0 0 0 0 1 1 1 1 1 1 1 1 1 1 1 1 1 1 1 1 1 1 1 1 1 1 1 1 1 1 1 1 1 1 0 0 0 0 0 0
0 35  0 0 0 0 0 0 0 0 0 0 0 0 0 0 0 0 0 0 1 1 1 1 1 1 1 1 1 1 1 1 1 1 1 1 1 1 1 1 1 1 1 1 1 1 1 1 1 1 1 1 0 0 0 0 0
0 36  0 0 0 0 0 0 0 0 0 0 0 0 0 0 0 0 0 0 1 1 1 1 1 1 1 1 1 1 1 1 1 1 1 1 1 1 1 1 1 1 1 1 1 1 1 1 1 1 1 1 0 0 0 0 0
0 37  0 0 0 0 0 0 0 0 0 0 0 0 0 0 0 0 0 0 0 1 1 1 1 1 1 1 1 1 1 1 1 1 1 1 1 1 1 1 1 1 1 1 1 1 1 1 1 1 0 0 0 0 0 0 0
0 38  0 0 0 0 0 0 0 0 0 0 0 0 0 0 0 0 0 0 0 1 1 1 1 1 1 1 1 1 1 1 1 1 1 1 1 1 1 1 1 1 1 1 1 1 1 1 1 0 0 0 0 0 0 0 0
0 39  0 0 0 0 0 0 0 0 0 0 0 0 0 0 0 0 0 0 0 1 1 1 1 1 1 1 1 1 1 1 1 1 1 1 1 1 1 1 1 1 1 1 1 1 1 1 0 0 0 0 0 0 0 0 0
0 40  0 0 0 0 0 0 0 0 0 0 0 0 0 0 0 0 0 1 1 1 1 1 1 1 1 1 1 1 1 1 1 1 1 1 1 1 1 1 1 1 1 1 1 1 1 0 0 0 0 0 0 0 0 0 0
0 41  0 0 0 0 0 0 0 0 0 0 0 0 0 0 0 0 0 1 1 1 1 1 1 1 1 1 1 1 1 1 1 1 1 1 1 1 1 1 1 1 1 1 1 1 1 0 0 0 0 0 0 0 0 0 0
0 42  0 0 0 0 0 0 0 0 0 0 0 0 0 0 0 1 1 1 1 1 1 1 1 1 1 1 1 1 1 0 0 0 0 1 1 1 1 1 1 1 1 1 1 1 0 0 0 0 0 0 0 0 0 0 0
0 43  0 0 0 0 0 0 0 0 0 0 0 0 0 0 0 1 1 1 1 1 1 1 1 1 1 1 0 0 0 0 0 0 0 0 1 1 1 1 1 1 1 0 0 0 0 0 0 0 0 0 0 0 0 0 0
0 44  0 0 0 0 0 0 0 0 0 0 0 0 0 0 0 0 1 1 0 0 0 0 0 0 0 0 0 0 0 0 0 0 0 0 1 1 0 0 0 0 0 0 0 0 0 0 0 0 0 0 0 0 0 0 0
0AQUIFER HEAD WILL BE SET TO  .00000     AT ALL NO-FLOW NODES (IBOUND=0).
0                                                                INITIAL HEAD =   .0000000     FOR LAYER  1
0HEAD PRINT FORMAT IS FORMAT NUMBER   0    DRAWDOWN PRINT FORMAT IS FORMAT NUMBER   9
0HEADS WILL BE SAVED ON UNIT 33    DRAWDOWNS WILL BE SAVED ON UNIT  0
0OUTPUT CONTROL IS SPECIFIED EVERY TIME STEP
0                                                    COLUMN TO ROW ANISOTROPY =   1.000000    
0                                                                        DELR =   100.0000    
0                                                                        DELC =   100.0000    
0                                                        PRIMARY STORAGE COEF =   .6000000E-01 FOR LAYER  1
0


                                  TRANSMIS. ALONG ROWS FOR LAYER  1 WILL BE READ ON UNIT 11 USING FORMAT: (7G11.4)            
                              ------------------------------------------------------------------------------------------------

         1     2     3     4     5     6     7     8     9    10    11    12    13    14    15    16    17    18    19    20
        21    22    23    24    25    26    27    28    29    30    31    32    33    34    35    36    37    38    39    40
        41    42    43    44    45    46    47    48    49    50    51    52    53    54    55
 ................................................................................................................................
0  1  .0000 .0000 .0000 .0000 .0000 .0000 .0000 .0000 .0000 .0000 .0000 .0000 .0000 .0000 .0000 .0000 .0000 .0000 .0000 .0000
      .0000 .0000 .0000 .0685 .0685 .0000 .0000 .0000 .0000 .0000 .0000 .0000 .0000 .0000 .0000 .0000 .0000 .0000 .0000 .0000
      .0000 .0000 .0000 .0000 .0000 .0000 .0000 .0000 .0000 .0000 .0000 .0000 .0000 .0000 .0000
0  2  .0000 .0000 .0000 .0000 .0000 .0000 .0000 .0000 .0000 .0000 .0000 .0000 .0000 .0000 .0000 .0000 .0000 .0000 .0000 .0000
      .0000 .0000 .0000 .0685 .0685 .0685 .0000 .0000 .0000 .0000 .0000 .0000 .0000 .0000 .0000 .0000 .0000 .0000 .0000 .0000
      .0000 .0000 .0000 .0000 .0000 .0000 .0000 .0000 .0000 .0000 .0000 .0000 .0000 .0000 .0000
0  3  .0000 .0000 .0000 .0000 .0000 .0000 .0000 .0000 .0000 .0000 .0000 .0000 .0000 .0000 .0000 .0000 .0000 .0000 .0000 .0000
      .0000 .0000 .0000 .0685 .0685 .0685 .0685 .0685 .0000 .0000 .0000 .0000 .0000 .0000 .0000 .0000 .0000 .0000 .0000 .0000
      .0000 .0000 .0000 .0000 .0000 .0000 .0000 .0000 .0000 .0000 .0000 .0000 .0000 .0000 .0000
0  4  .0000 .0000 .0000 .0000 .0000 .0000 .0000 .0000 .0000 .0000 .0000 .0000 .0000 .0000 .0000 .0000 .0000 .0000 .0000 .0000
      .0000 .0000 .0000 .0000 .0685 .0685 .0685 .0685 .0685 .0000 .0000 .0000 .0000 .0000 .0000 .0000 .0000 .0000 .0000 .0000
      .0000 .0000 .0000 .0000 .0000 .0000 .0000 .0000 .0000 .0000 .0000 .0000 .0000 .0000 .0000
0  5  .0000 .0000 .0000 .0000 .0000 .0000 .0000 .0000 .0000 .0000 .0000 .0000 .0000 .0000 .0000 .0000 .0000 .0000 .0000 .0000
      .0000 .0000 .0000 .0000 .0685 .0685 .0685 .0685 .0685 .0685 .0685 .0000 .0000 .0000 .0000 .0685 .0685 .0000 .0000 .0000
      .0000 .0000 .0000 .0000 .0000 .0000 .0000 .0000 .0000 .0000 .0000 .0000 .0000 .0000 .0000
0  6  .0000 .0000 .0000 .0000 .0000 .0000 .0000 .0000 .0000 .0000 .0000 .0000 .0000 .0000 .0000 .0000 .0000 .0000 .0000 .0000
      .0000 .0000 .0000 .0000 .0000 .0685 .0685 .0685 .0685 .0685 .0685 .0685 .0685 .0685 .0685 .0685 .0685 .0685 .0685 .0685
      .0685 .0685 .0685 .0685 .0000 .0000 .0000 .0000 .0000 .0000 .0000 .0000 .0000 .0000 .0000
0  7  .0000 .0000 .0000 .0000 .0000 .0000 .0000 .0000 .0000 .0000 .0000 .0000 .0000 .0000 .0000 .0000 .0000 .0000 .0000 .0000
      .0000 .0000 .0000 .0000 .0000 .0000 .0685 .0685 .0685 .0685 .0685 .0685 .0685 .0685 .0685 .0685 .0685 .0685 .0685 .0685
      .0685 .0685 .0685 .0685 .0000 .0000 .0000 .0000 .0000 .0000 .0000 .0000 .0000 .0000 .0000
0  8  .0000 .0000 .0000 .0000 .0000 .0000 .0000 .0000 .0000 .0000 .0000 .0000 .0000 .0000 .0000 .0000 .0000 .0000 .0000 .0000
      .0000 .0000 .0000 .0000 .0000 .0000 .0685 .0685 .0685 .0685 .0685 .0685 .0685 .0685 .0685 .0685 .0685 .0685 .0685 .0685
      .0685 .0685 .0685 .0685 .0685 .0685 .0685 .0685 .0685 .0000 .0000 .0000 .0000 .0000 .0000
0  9  .0000 .0000 .0000 .0000 .0000 .0000 .0000 .0000 .0000 .0000 .0000 .0000 .0000 .0000 .0000 .0000 .0000 .0000 .0000 .0000
      .0000 .0685 .0685 .0685 .0685 .0685 .0685 .0685 .0685 .0685 .0685 .0685 .0685 .0685 .0685 .0685 .0685 .0685 .0685 .0685
      .0685 .0685 .0685 .0685 .0685 .0685 .0685 .0685 .0685 .0685 .0685 .0000 .0000 .0000 .0000
0 10  .0000 .0000 .0000 .0000 .0000 .0000 .0000 .0000 .0000 .0000 .0000 .0000 .0000 .0000 .0000 .0000 .0000 .0000 .0000 .0000
      .0000 .0685 .0685 .0685 .0685 .0685 .0685 .0685 .0685 .0685 .0685 .0685 .0685 .0685 .0685 .0685 .0685 .0685 .0685 .0685
      .0685 .0685 .0685 .0685 .0685 .0685 .0685 .0685 .0685 .0685 .0685 .0000 .0000 .0000 .0000
0 11  .0000 .0000 .0000 .0000 .0000 .0000 .0000 .0000 .0000 .0000 .0000 .0000 .0000 .0000 .0000 .0000 .0000 .0000 .0000 .0000
      .0685 .0685 .0685 .0685 .0685 .0685 .0685 .0685 .0685 .0685 .0685 .0685 .0685 .0685 .0685 .0685 .0685 .0685 .0685 .0685
      .0685 .0685 .0685 .0685 .0685 .0685 .0000 .0000 .0000 .0000 .0000 .0000 .0000 .0000 .0000
0 12  .0000 .0000 .0000 .0000 .0000 .0000 .0000 .0000 .0000 .0000 .0000 .0000 .0000 .0000 .0000 .0000 .0000 .0000 .0000 .0000
      .0685 .0685 .0685 .0685 .0685 .0685 .0685 .0685 .0685 .0685 .0685 .0685 .0685 .0685 .0685 .0685 .0685 .0685 .0000 .0000
      .0000 .0000 .0000 .0000 .0000 .0000 .0000 .0000 .0000 .0000 .0000 .0000 .0000 .0000 .0000
0 13  .0000 .0000 .0000 .0000 .0000 .0000 .0000 .0000 .0000 .0000 .0000 .0000 .0000 .0000 .0000 .0000 .0000 .0000 .0685 .0685
      .0685 .0685 .0685 .0685 .0685 .0685 .0685 .0685 .0685 .0685 .0685 .0685 .0685 .0685 .0685 .0685 .0685 .0685 .0000 .0000
      .0000 .0000 .0000 .0000 .0000 .0000 .0000 .0000 .0000 .0000 .0000 .0000 .0000 .0000 .0000
0 14  .0000 .0000 .0000 .0000 .0000 .0000 .0000 .0000 .0000 .0000 .0000 .0000 .0000 .0000 .0000 .0000 .0000 .0685 .0685 .0685
      .0685 .0685 .0685 .0685 .0685 .0685 .0685 .0685 .0685 .0685 .0685 .0685 .0685 .0685 .0685 .0685 .0685 .0685 .0000 .0000
      .0000 .0000 .0000 .0000 .0000 .0000 .0000 .0000 .0000 .0000 .0000 .0000 .0000 .0000 .0000
0 15  .0000 .0000 .0000 .0000 .0000 .0000 .0685 .0685 .0000 .0000 .0000 .0685 .0685 .0000 .0000 .0685 .0685 .0685 .0685 .0685
      .0685 .0685 .0685 .0685 .0685 .0685 .0685 .0685 .0685 .0685 .0685 .0685 .0685 .0685 .0685 .0685 .0685 .0000 .0000 .0000
      .0000 .0000 .0000 .0000 .0000 .0000 .0000 .0000 .0000 .0000 .0000 .0000 .0000 .0000 .0000
0 16  .0000 .0000 .0000 .0685 .0685 .0685 .0685 .0685 .0000 .0685 .0685 .0685 .0685 .0685 .0685 .0685 .0685 .0685 .0685 .0685
      .0685 .0685 .0685 .0685 .0685 .0685 .0685 .0685 .0685 .0685 .0685 .0685 .0685 .0685 .0685 .0685 .0000 .0000 .0000 .0000
      .0000 .0000 .0000 .0000 .0000 .0000 .0000 .0000 .0000 .0000 .0000 .0000 .0000 .0000 .0000
0 17  .1370 .1370 .1370 .0685 .0685 .0685 .0685 .0685 .0685 .0685 .0685 .0685 .0685 .0685 .0685 .0685 .0685 .0685 .0685 .0685
      .0685 .0685 .0685 .0685 .0685 .0685 .0685 .0685 .0685 .0685 .0685 .0685 .0685 .0685 .0685 .0000 .0000 .0000 .0000 .0000
      .0000 .0000 .0000 .0000 .0000 .0000 .0000 .0000 .0000 .0000 .0000 .0000 .0000 .0000 .0000
0 18  .2740 .2740 .2740 .1370 .1370 .1370 .0685 .0685 .0685 .0685 .0685 .0685 .0685 .0685 .0685 .0685 .0685 .0685 .0685 .0685
      .0685 .0685 .0685 .0685 .0685 .0685 .0685 .0685 .0685 .0685 .0685 .0685 .0685 .0685 .0685 .0685 .0000 .0000 .0000 .0000
      .0000 .0000 .0000 .0000 .0000 .0000 .0000 .0000 .0000 .0000 .0000 .0000 .0000 .0000 .0000
0 19  .0000 .0000 .2740 .2740 .2740 .1370 .1370 .0685 .0685 .0685 .0685 .0685 .0685 .0685 .0685 .0685 .0685 .0685 .0685 .0685
      .0685 .0685 .0685 .0685 .0685 .0685 .0685 .0685 .0685 .0685 .0685 .0685 .0685 .0685 .0685 .0685 .0685 .0000 .0000 .0000
      .0000 .0000 .0000 .0000 .0000 .0000 .0000 .0000 .0000 .0000 .0000 .0000 .0000 .0000 .0000
0 20  .0000 .0000 .0000 .0000 .2740 .2740 .2740 .1370 .1370 .0685 .0685 .0685 .0685 .0685 .0685 .0685 .0685 .0685 .0685 .0685
      .0685 .0685 .0685 .0685 .0685 .0685 .0685 .0685 .0685 .0685 .0685 .0685 .0685 .0685 .0685 .0685 .0685 .0000 .0000 .0000
      .0000 .0000 .0000 .0000 .0000 .0000 .0000 .0000 .0000 .0000 .0000 .0000 .0000 .0000 .0000
0 21  .0000 .0000 .0000 .0000 .0000 .0000 .2740 .2740 .2740 .1370 .1370 .0685 .0685 .0685 .0685 .0685 .0685 .0685 .0685 .0685
      .0685 .0685 .0685 .0685 .0685 .0685 .0685 .0685 .0685 .0685 .0685 .0685 .0685 .0685 .0685 .0685 .0685 .0000 .0000 .0000
      .0000 .0000 .0000 .0000 .0000 .0000 .0000 .0000 .0000 .0000 .0000 .0000 .0000 .0000 .0000
0 22  .0000 .0000 .0000 .0000 .0000 .0000 .0000 .0000 .0000 .2740 .2740 .2740 .1370 .1370 .1370 .0685 .0685 .0685 .0685 .0685
      .0685 .0685 .0685 .0685 .0685 .0685 .0685 .0685 .0685 .0685 .0685 .0685 .0685 .0685 .0685 .0685 .0685 .0000 .0000 .0000
      .0000 .0000 .0000 .0000 .0000 .0000 .0000 .0000 .0000 .0000 .0000 .0000 .0000 .0000 .0000
0 23  .0000 .0000 .0000 .0000 .0000 .0000 .0000 .0000 .0000 .0000 .2740 .2740 .2740 .2740 .1370 .1370 .1370 .1370 .1370 .1370
      .1370 .1370 .1370 .1370 .1370 .1370 .1370 .1370 .1370 .1370 .1370 .1370 .1370 .1370 .1370 .1370 .0000 .0000 .0000 .0000
      .0000 .0000 .0000 .0000 .0000 .0000 .0000 .0000 .0000 .0000 .0000 .0000 .0000 .0000 .0000
0 24  .0000 .0000 .0000 .0000 .0000 .0000 .0000 .0000 .0000 .0000 .0000 .2740 .2740 .2740 .2740 .2740 .2740 .2740 .2740 .2740
      .2740 .2740 .2740 .2740 .2740 .2740 .2740 .1370 .1370 .1370 .1370 .1370 .1370 .1370 .1370 .1370 .0000 .0000 .0000 .0000
      .0000 .0000 .0000 .0000 .0685 .0685 .0685 .0685 .0685 .0685 .0685 .0000 .0000 .0000 .0000
0 25  .0000 .0000 .0000 .0000 .0000 .0000 .0000 .0000 .0000 .0000 .0000 .0000 .2740 .2740 .2740 .2740 .2740 .2740 .2740 .2740
      .2740 .2740 .2740 .2740 .2740 .2740 .2740 .2740 .2740 .2740 .2740 .2740 .2740 .2740 .2740 .2740 .2740 .1370 .1370 .0685
      .0685 .0685 .0685 .0685 .0685 .0685 .0685 .0685 .0685 .0685 .0685 .0685 .0000 .0000 .0000
0 26  .0000 .0000 .0000 .0000 .0000 .0000 .0000 .0000 .0000 .0000 .0000 .0000 .0000 .0000 .2740 .2740 .2740 .2740 .2740 .2740
      .2740 .2740 .2740 .2740 .2740 .2740 .2740 .2740 .2740 .2740 .2740 .2740 .2740 .2740 .2740 .2740 .2740 .2740 .1370 .1370
      .0685 .0685 .0685 .0685 .0685 .0685 .0685 .0685 .0685 .0685 .0685 .0685 .0685 .0000 .0000
0 27  .0000 .0000 .0000 .0000 .0000 .0000 .0000 .0000 .0000 .0000 .0000 .0000 .0000 .0000 .0000 .0000 .0000 .2740 .2740 .2740
      .2740 .2740 .2740 .2740 .2740 .2740 .2740 .2740 .2740 .2740 .2740 .2740 .2740 .2740 .2740 .2740 .2740 .2740 .2740 .1370
      .1370 .0685 .0685 .0685 .0685 .0685 .0685 .0685 .0685 .0685 .0685 .0685 .0685 .0685 .0000
0 28  .0000 .0000 .0000 .0000 .0000 .0000 .0000 .0000 .0000 .0000 .0000 .0000 .0000 .0000 .0000 .0000 .0000 .0000 .0000 .2740
      .2740 .2740 .2740 .2740 .2740 .2740 .2740 .2740 .2740 .2740 .2740 .2740 .2740 .2740 .2740 .2740 .2740 .2740 .2740 .2740
      .1370 .1370 .0685 .0685 .0685 .0685 .0685 .0685 .0685 .0685 .0685 .0685 .0685 .0685 .0685
0 29  .0000 .0000 .0000 .0000 .0000 .0000 .0000 .0000 .0000 .0000 .0000 .0000 .0000 .0000 .0000 .0000 .0000 .0000 .2740 .2740
      .2740 .2740 .2740 .2740 .2740 .2740 .2740 .2740 .2740 .2740 .2740 .2740 .2740 .2740 .2740 .2740 .2740 .2740 .2740 .2740
      .1370 .1370 .1370 .0685 .0685 .0685 .0685 .0685 .0685 .0685 .0685 .0685 .0685 .0685 .0685
0 30  .0000 .0000 .0000 .0000 .0000 .0000 .0000 .0000 .0000 .0000 .0000 .0000 .0000 .0000 .0000 .0000 .0000 .0000 .2740 .2740
      .2740 .2740 .2740 .2740 .2740 .2740 .2740 .2740 .2740 .2740 .2740 .2740 .2740 .2740 .2740 .2740 .2740 .2740 .2740 .2740
      .2740 .1370 .1370 .1370 .0685 .0685 .0685 .0685 .0685 .0685 .0685 .0685 .0685 .0685 .0000
0 31  .0000 .0000 .0000 .0000 .0000 .0000 .0000 .0000 .0000 .0000 .0000 .0000 .0000 .0000 .0000 .0000 .0000 .0000 .2740 .2740
      .2740 .2740 .2740 .2740 .2740 .2740 .2740 .2740 .2740 .2740 .2740 .2740 .2740 .2740 .2740 .2740 .2740 .2740 .2740 .2740
      .2740 .2740 .1370 .1370 .0685 .0685 .0685 .0685 .0685 .0685 .0685 .0000 .0000 .0000 .0000
0 32  .0000 .0000 .0000 .0000 .0000 .0000 .0000 .0000 .0000 .0000 .0000 .0000 .0000 .0000 .0000 .0000 .0000 .0000 .0000 .2740
      .2740 .2740 .2740 .2740 .2740 .2740 .2740 .2740 .2740 .2740 .2740 .2740 .2740 .2740 .2740 .2740 .2740 .2740 .2740 .2740
      .2740 .2740 .1370 .1370 .0685 .0685 .0685 .0685 .0685 .0000 .0000 .0000 .0000 .0000 .0000
0 33  .0000 .0000 .0000 .0000 .0000 .0000 .0000 .0000 .0000 .0000 .0000 .0000 .0000 .0000 .0000 .0000 .0000 .0000 .0000 .2740
      .2740 .2740 .2740 .2740 .2740 .2740 .2740 .2740 .2740 .2740 .2740 .2740 .2740 .2740 .2740 .2740 .2740 .2740 .2740 .2740
      .2740 .2740 .2740 .1370 .1370 .0685 .0685 .0685 .0685 .0000 .0000 .0000 .0000 .0000 .0000
0 34  .0000 .0000 .0000 .0000 .0000 .0000 .0000 .0000 .0000 .0000 .0000 .0000 .0000 .0000 .0000 .0000 .0000 .0000 .0000 .1370
      .2740 .2740 .2740 .2740 .2740 .2740 .2740 .2740 .2740 .2740 .2740 .2740 .2740 .2740 .2740 .2740 .2740 .2740 .2740 .2740
      .2740 .2740 .2740 .2740 .1370 .1370 .0685 .0685 .0685 .0000 .0000 .0000 .0000 .0000 .0000
0 35  .0000 .0000 .0000 .0000 .0000 .0000 .0000 .0000 .0000 .0000 .0000 .0000 .0000 .0000 .0000 .0000 .0000 .0000 .1370 .1370
      .1370 .2740 .2740 .2740 .2740 .2740 .2740 .2740 .2740 .2740 .2740 .2740 .2740 .2740 .2740 .2740 .2740 .2740 .2740 .2740
      .2740 .2740 .2740 .2740 .2740 .1370 .1370 .0685 .0685 .0685 .0000 .0000 .0000 .0000 .0000
0 36  .0000 .0000 .0000 .0000 .0000 .0000 .0000 .0000 .0000 .0000 .0000 .0000 .0000 .0000 .0000 .0000 .0000 .0000 .1370 .1370
      .1370 .1370 .1370 .2740 .2740 .2740 .2740 .2740 .2740 .2740 .2740 .2740 .2740 .2740 .2740 .2740 .2740 .2740 .2740 .2740
      .2740 .2740 .2740 .2740 .2740 .2740 .1370 .1370 .0685 .0685 .0000 .0000 .0000 .0000 .0000
0 37  .0000 .0000 .0000 .0000 .0000 .0000 .0000 .0000 .0000 .0000 .0000 .0000 .0000 .0000 .0000 .0000 .0000 .0000 .0000 .1370
      .1370 .1370 .1370 .1370 .1370 .2740 .2740 .2740 .2740 .2740 .2740 .2740 .2740 .2740 .2740 .2740 .2740 .2740 .2740 .2740
      .2740 .2740 .2740 .2740 .2740 .2740 .2740 .1370 .0000 .0000 .0000 .0000 .0000 .0000 .0000
0 38  .0000 .0000 .0000 .0000 .0000 .0000 .0000 .0000 .0000 .0000 .0000 .0000 .0000 .0000 .0000 .0000 .0000 .0000 .0000 .1370
      .1370 .1370 .1370 .1370 .1370 .1370 .1370 .2740 .2740 .2740 .2740 .2740 .2740 .2740 .2740 .2740 .2740 .2740 .2740 .2740
      .2740 .2740 .2740 .2740 .2740 .2740 .2740 .0000 .0000 .0000 .0000 .0000 .0000 .0000 .0000
0 39  .0000 .0000 .0000 .0000 .0000 .0000 .0000 .0000 .0000 .0000 .0000 .0000 .0000 .0000 .0000 .0000 .0000 .0000 .0000 .1370
      .1370 .1370 .1370 .1370 .1370 .1370 .1370 .1370 .1370 .1370 .2740 .2740 .2740 .2740 .2740 .2740 .2740 .2740 .2740 .2740
      .2740 .2740 .2740 .2740 .2740 .2740 .0000 .0000 .0000 .0000 .0000 .0000 .0000 .0000 .0000
0 40  .0000 .0000 .0000 .0000 .0000 .0000 .0000 .0000 .0000 .0000 .0000 .0000 .0000 .0000 .0000 .0000 .0000 .1370 .1370 .1370
      .1370 .1370 .1370 .1370 .1370 .1370 .1370 .1370 .1370 .1370 .1370 .1370 .1370 .1370 .1370 .1370 .1370 .1370 .1370 .1370
      .1370 .2740 .2740 .2740 .2740 .0000 .0000 .0000 .0000 .0000 .0000 .0000 .0000 .0000 .0000
0 41  .0000 .0000 .0000 .0000 .0000 .0000 .0000 .0000 .0000 .0000 .0000 .0000 .0000 .0000 .0000 .0000 .0000 .1370 .1370 .1370
      .1370 .1370 .1370 .1370 .1370 .1370 .1370 .1370 .1370 .1370 .1370 .1370 .1370 .1370 .1370 .1370 .1370 .1370 .1370 .1370
      .1370 .1370 .1370 .1370 .1370 .0000 .0000 .0000 .0000 .0000 .0000 .0000 .0000 .0000 .0000
0 42  .0000 .0000 .0000 .0000 .0000 .0000 .0000 .0000 .0000 .0000 .0000 .0000 .0000 .0000 .0000 .1370 .1370 .1370 .1370 .1370
      .1370 .1370 .1370 .1370 .1370 .1370 .1370 .1370 .1370 .0000 .0000 .0000 .0000 .1370 .1370 .1370 .1370 .1370 .1370 .1370
      .1370 .1370 .1370 .1370 .0000 .0000 .0000 .0000 .0000 .0000 .0000 .0000 .0000 .0000 .0000
0 43  .0000 .0000 .0000 .0000 .0000 .0000 .0000 .0000 .0000 .0000 .0000 .0000 .0000 .0000 .0000 .1370 .1370 .1370 .1370 .1370
      .1370 .1370 .1370 .1370 .1370 .1370 .0000 .0000 .0000 .0000 .0000 .0000 .0000 .0000 .1370 .1370 .1370 .1370 .1370 .1370
      .1370 .0000 .0000 .0000 .0000 .0000 .0000 .0000 .0000 .0000 .0000 .0000 .0000 .0000 .0000
0 44  .0000 .0000 .0000 .0000 .0000 .0000 .0000 .0000 .0000 .0000 .0000 .0000 .0000 .0000 .0000 .0000 .1370 .1370 .0000 .0000
      .0000 .0000 .0000 .0000 .0000 .0000 .0000 .0000 .0000 .0000 .0000 .0000 .0000 .0000 .1370 .1370 .0000 .0000 .0000 .0000
      .0000 .0000 .0000 .0000 .0000 .0000 .0000 .0000 .0000 .0000 .0000 .0000 .0000 .0000 .0000
0


                                                         SOLUTION BY THE STRONGLY IMPLICIT PROCEDURE
                                                         -------------------------------------------
0                                               MAXIMUM ITERATIONS ALLOWED FOR CLOSURE =       50
                                                                ACCELERATION PARAMETER =     1.0000    
                                                     HEAD CHANGE CRITERION FOR CLOSURE =     .10000E-03
                                                     SIP HEAD CHANGE PRINTOUT INTERVAL =        1
0                                                    CALCULATE ITERATION PARAMETERS FROM MODEL CALCULATED WSEED
1                                                   STRESS PERIOD NO.   1, LENGTH =   129600.0    
                                                    ----------------------------------------------

                                                    NUMBER OF TIME STEPS =    15

                                                     MULTIPLIER FOR DELT =     1.414

                                                  INITIAL TIME STEP SIZE =   298.7276    
0             1 WELLS
                                                LAYER    ROW    COL    STRESS RATE   WELL NO.
                                                ---------------------------------------------
                                                  1      29     32     -.96300           1
0

    49 RIVER REACHES
0               LAYER     ROW     COL     STAGE     CONDUCTANCE   BOTTOM ELEVATION   RIVER REACH
                --------------------------------------------------------------------------------
                   1       18       1    .0000         .2000E-01         -10.00             1
                   1       18       2    .0000         .2000E-01         -10.00             2
                   1       19       3    .0000         .2000E-01         -10.00             3
                   1       19       4    .0000         .2000E-01         -10.00             4
                   1       20       5    .0000         .2000E-01         -10.00             5
                   1       20       6    .0000         .2000E-01         -10.00             6
                   1       20       7    .0000         .2000E-01         -10.00             7
                   1       21       8    .0000         .2000E-01         -10.00             8
                   1       21       9    .0000         .2000E-01         -10.00             9
                   1       22      10    .0000         .2000E-01         -10.00            10
                   1       22      11    .0000         .2000E-01         -10.00            11
                   1       22      12    .0000         .2000E-01         -10.00            12
                   1       23      13    .0000         .2000E-01         -10.00            13
                   1       23      14    .0000         .2000E-01         -10.00            14
                   1       24      15    .0000         .2000E-01         -10.00            15
                   1       24      16    .0000         .2000E-01         -10.00            16
                   1       24      17    .0000         .2000E-01         -10.00            17
                   1       24      18    .0000         .2000E-01         -10.00            18
                   1       25      19    .0000         .2000E-01         -10.00            19
                   1       25      20    .0000         .2000E-01         -10.00            20
                   1       25      21    .0000         .2000E-01         -10.00            21
                   1       25      22    .0000         .2000E-01         -10.00            22
                   1       26      23    .0000         .2000E-01         -10.00            23
                   1       26      24    .0000         .2000E-01         -10.00            24
                   1       27      25    .0000         .2000E-01         -10.00            25
                   1       27      26    .0000         .2000E-01         -10.00            26
                   1       28      27    .0000         .2000E-01         -10.00            27
                   1       28      28    .0000         .2000E-01         -10.00            28
                   1       28      29    .0000         .2000E-01         -10.00            29
                   1       28      30    .0000         .2000E-01         -10.00            30
                   1       28      31    .0000         .2000E-01         -10.00            31
                   1       27      32    .0000         .2000E-01         -10.00            32
                   1       27      33    .0000         .2000E-01         -10.00            33
                   1       27      34    .0000         .2000E-01         -10.00            34
                   1       27      35    .0000         .2000E-01         -10.00            35
                   1       28      36    .0000         .2000E-01         -10.00            36
                   1       29      37    .0000         .2000E-01         -10.00            37
                   1       29      38    .0000         .2000E-01         -10.00            38
                   1       30      39    .0000         .2000E-01         -10.00            39
                   1       30      40    .0000         .2000E-01         -10.00            40
                   1       31      41    .0000         .2000E-01         -10.00            41
                   1       31      42    .0000         .2000E-01         -10.00            42
                   1       32      43    .0000         .2000E-01         -10.00            43
                   1       32      44    .0000         .2000E-01         -10.00            44
                   1       33      45    .0000         .2000E-01         -10.00            45
                   1       33      46    .0000         .2000E-01         -10.00            46
                   1       33      47    .0000         .2000E-01         -10.00            47
                   1       33      48    .0000         .2000E-01         -10.00            48
                   1       33      49    .0000         .2000E-01         -10.00            49
0AVERAGE SEED =  .00079888
 MINIMUM SEED =  .00054378
0
    5 ITERATION PARAMETERS CALCULATED FROM AVERAGE SEED:

             .0000000E+00   .8318796E+00   .9717355E+00   .9952481E+00   .9992011E+00
0
     3 ITERATIONS FOR TIME STEP   1 IN STRESS PERIOD  1
0MAXIMUM HEAD CHANGE FOR EACH ITERATION:
0 HEAD CHANGE LAYER,ROW,COL HEAD CHANGE LAYER,ROW,COL HEAD CHANGE LAYER,ROW,COL HEAD CHANGE LAYER,ROW,COL HEAD CHANGE LAYER,ROW,COL
 ------------------------------------------------------------------------------------------------------------------------------------
   -.3204     (  1, 29, 32)  -.2689E-02 (  1, 30, 31)  -.2438E-04 (  1, 28, 33)
0
0HEAD/DRAWDOWN PRINTOUT FLAG = 1     TOTAL BUDGET PRINTOUT FLAG = 1     CELL-BY-CELL FLOW TERM FLAG = 0
0OUTPUT FLAGS FOR ALL LAYERS ARE THE SAME:
   HEAD    DRAWDOWN  HEAD  DRAWDOWN
 PRINTOUT  PRINTOUT  SAVE    SAVE
 ----------------------------------
     0         1       0       0
1                  DRAWDOWN IN LAYER  1 AT END OF TIME STEP  1 IN STRESS PERIOD  1
           -----------------------------------------------------------------------

         1     2     3     4     5     6     7     8     9    10    11    12    13    14    15    16    17    18    19    20
        21    22    23    24    25    26    27    28    29    30    31    32    33    34    35    36    37    38    39    40
        41    42    43    44    45    46    47    48    49    50    51    52    53    54    55
 ................................................................................................................................
0  1    .00   .00   .00   .00   .00   .00   .00   .00   .00   .00   .00   .00   .00   .00   .00   .00   .00   .00   .00   .00
        .00   .00   .00   .00   .00   .00   .00   .00   .00   .00   .00   .00   .00   .00   .00   .00   .00   .00   .00   .00
        .00   .00   .00   .00   .00   .00   .00   .00   .00   .00   .00   .00   .00   .00   .00
0  2    .00   .00   .00   .00   .00   .00   .00   .00   .00   .00   .00   .00   .00   .00   .00   .00   .00   .00   .00   .00
        .00   .00   .00   .00   .00   .00   .00   .00   .00   .00   .00   .00   .00   .00   .00   .00   .00   .00   .00   .00
        .00   .00   .00   .00   .00   .00   .00   .00   .00   .00   .00   .00   .00   .00   .00
0  3    .00   .00   .00   .00   .00   .00   .00   .00   .00   .00   .00   .00   .00   .00   .00   .00   .00   .00   .00   .00
        .00   .00   .00   .00   .00   .00   .00   .00   .00   .00   .00   .00   .00   .00   .00   .00   .00   .00   .00   .00
        .00   .00   .00   .00   .00   .00   .00   .00   .00   .00   .00   .00   .00   .00   .00
0  4    .00   .00   .00   .00   .00   .00   .00   .00   .00   .00   .00   .00   .00   .00   .00   .00   .00   .00   .00   .00
        .00   .00   .00   .00   .00   .00   .00   .00   .00   .00   .00   .00   .00   .00   .00   .00   .00   .00   .00   .00
        .00   .00   .00   .00   .00   .00   .00   .00   .00   .00   .00   .00   .00   .00   .00
0  5    .00   .00   .00   .00   .00   .00   .00   .00   .00   .00   .00   .00   .00   .00   .00   .00   .00   .00   .00   .00
        .00   .00   .00   .00   .00   .00   .00   .00   .00   .00   .00   .00   .00   .00   .00   .00   .00   .00   .00   .00
        .00   .00   .00   .00   .00   .00   .00   .00   .00   .00   .00   .00   .00   .00   .00
0  6    .00   .00   .00   .00   .00   .00   .00   .00   .00   .00   .00   .00   .00   .00   .00   .00   .00   .00   .00   .00
        .00   .00   .00   .00   .00   .00   .00   .00   .00   .00   .00   .00   .00   .00   .00   .00   .00   .00   .00   .00
        .00   .00   .00   .00   .00   .00   .00   .00   .00   .00   .00   .00   .00   .00   .00
0  7    .00   .00   .00   .00   .00   .00   .00   .00   .00   .00   .00   .00   .00   .00   .00   .00   .00   .00   .00   .00
        .00   .00   .00   .00   .00   .00   .00   .00   .00   .00   .00   .00   .00   .00   .00   .00   .00   .00   .00   .00
        .00   .00   .00   .00   .00   .00   .00   .00   .00   .00   .00   .00   .00   .00   .00
0  8    .00   .00   .00   .00   .00   .00   .00   .00   .00   .00   .00   .00   .00   .00   .00   .00   .00   .00   .00   .00
        .00   .00   .00   .00   .00   .00   .00   .00   .00   .00   .00   .00   .00   .00   .00   .00   .00   .00   .00   .00
        .00   .00   .00   .00   .00   .00   .00   .00   .00   .00   .00   .00   .00   .00   .00
0  9    .00   .00   .00   .00   .00   .00   .00   .00   .00   .00   .00   .00   .00   .00   .00   .00   .00   .00   .00   .00
        .00   .00   .00   .00   .00   .00   .00   .00   .00   .00   .00   .00   .00   .00   .00   .00   .00   .00   .00   .00
        .00   .00   .00   .00   .00   .00   .00   .00   .00   .00   .00   .00   .00   .00   .00
0 10    .00   .00   .00   .00   .00   .00   .00   .00   .00   .00   .00   .00   .00   .00   .00   .00   .00   .00   .00   .00
        .00   .00   .00   .00   .00   .00   .00   .00   .00   .00   .00   .00   .00   .00   .00   .00   .00   .00   .00   .00
        .00   .00   .00   .00   .00   .00   .00   .00   .00   .00   .00   .00   .00   .00   .00
0 11    .00   .00   .00   .00   .00   .00   .00   .00   .00   .00   .00   .00   .00   .00   .00   .00   .00   .00   .00   .00
        .00   .00   .00   .00   .00   .00   .00   .00   .00   .00   .00   .00   .00   .00   .00   .00   .00   .00   .00   .00
        .00   .00   .00   .00   .00   .00   .00   .00   .00   .00   .00   .00   .00   .00   .00
0 12    .00   .00   .00   .00   .00   .00   .00   .00   .00   .00   .00   .00   .00   .00   .00   .00   .00   .00   .00   .00
        .00   .00   .00   .00   .00   .00   .00   .00   .00   .00   .00   .00   .00   .00   .00   .00   .00   .00   .00   .00
        .00   .00   .00   .00   .00   .00   .00   .00   .00   .00   .00   .00   .00   .00   .00
0 13    .00   .00   .00   .00   .00   .00   .00   .00   .00   .00   .00   .00   .00   .00   .00   .00   .00   .00   .00   .00
        .00   .00   .00   .00   .00   .00   .00   .00   .00   .00   .00   .00   .00   .00   .00   .00   .00   .00   .00   .00
        .00   .00   .00   .00   .00   .00   .00   .00   .00   .00   .00   .00   .00   .00   .00
0 14    .00   .00   .00   .00   .00   .00   .00   .00   .00   .00   .00   .00   .00   .00   .00   .00   .00   .00   .00   .00
        .00   .00   .00   .00   .00   .00   .00   .00   .00   .00   .00   .00   .00   .00   .00   .00   .00   .00   .00   .00
        .00   .00   .00   .00   .00   .00   .00   .00   .00   .00   .00   .00   .00   .00   .00
0 15    .00   .00   .00   .00   .00   .00   .00   .00   .00   .00   .00   .00   .00   .00   .00   .00   .00   .00   .00   .00
        .00   .00   .00   .00   .00   .00   .00   .00   .00   .00   .00   .00   .00   .00   .00   .00   .00   .00   .00   .00
        .00   .00   .00   .00   .00   .00   .00   .00   .00   .00   .00   .00   .00   .00   .00
0 16    .00   .00   .00   .00   .00   .00   .00   .00   .00   .00   .00   .00   .00   .00   .00   .00   .00   .00   .00   .00
        .00   .00   .00   .00   .00   .00   .00   .00   .00   .00   .00   .00   .00   .00   .00   .00   .00   .00   .00   .00
        .00   .00   .00   .00   .00   .00   .00   .00   .00   .00   .00   .00   .00   .00   .00
0 17    .00   .00   .00   .00   .00   .00   .00   .00   .00   .00   .00   .00   .00   .00   .00   .00   .00   .00   .00   .00
        .00   .00   .00   .00   .00   .00   .00   .00   .00   .00   .00   .00   .00   .00   .00   .00   .00   .00   .00   .00
        .00   .00   .00   .00   .00   .00   .00   .00   .00   .00   .00   .00   .00   .00   .00
0 18    .00   .00   .00   .00   .00   .00   .00   .00   .00   .00   .00   .00   .00   .00   .00   .00   .00   .00   .00   .00
        .00   .00   .00   .00   .00   .00   .00   .00   .00   .00   .00   .00   .00   .00   .00   .00   .00   .00   .00   .00
        .00   .00   .00   .00   .00   .00   .00   .00   .00   .00   .00   .00   .00   .00   .00
0 19    .00   .00   .00   .00   .00   .00   .00   .00   .00   .00   .00   .00   .00   .00   .00   .00   .00   .00   .00   .00
        .00   .00   .00   .00   .00   .00   .00   .00   .00   .00   .00   .00   .00   .00   .00   .00   .00   .00   .00   .00
        .00   .00   .00   .00   .00   .00   .00   .00   .00   .00   .00   .00   .00   .00   .00
0 20    .00   .00   .00   .00   .00   .00   .00   .00   .00   .00   .00   .00   .00   .00   .00   .00   .00   .00   .00   .00
        .00   .00   .00   .00   .00   .00   .00   .00   .00   .00   .00   .00   .00   .00   .00   .00   .00   .00   .00   .00
        .00   .00   .00   .00   .00   .00   .00   .00   .00   .00   .00   .00   .00   .00   .00
0 21    .00   .00   .00   .00   .00   .00   .00   .00   .00   .00   .00   .00   .00   .00   .00   .00   .00   .00   .00   .00
        .00   .00   .00   .00   .00   .00   .00   .00   .00   .00   .00   .00   .00   .00   .00   .00   .00   .00   .00   .00
        .00   .00   .00   .00   .00   .00   .00   .00   .00   .00   .00   .00   .00   .00   .00
0 22    .00   .00   .00   .00   .00   .00   .00   .00   .00   .00   .00   .00   .00   .00   .00   .00   .00   .00   .00   .00
        .00   .00   .00   .00   .00   .00   .00   .00   .00   .00   .00   .00   .00   .00   .00   .00   .00   .00   .00   .00
        .00   .00   .00   .00   .00   .00   .00   .00   .00   .00   .00   .00   .00   .00   .00
0 23    .00   .00   .00   .00   .00   .00   .00   .00   .00   .00   .00   .00   .00   .00   .00   .00   .00   .00   .00   .00
        .00   .00   .00   .00   .00   .00   .00   .00   .00   .00   .00   .00   .00   .00   .00   .00   .00   .00   .00   .00
        .00   .00   .00   .00   .00   .00   .00   .00   .00   .00   .00   .00   .00   .00   .00
0 24    .00   .00   .00   .00   .00   .00   .00   .00   .00   .00   .00   .00   .00   .00   .00   .00   .00   .00   .00   .00
        .00   .00   .00   .00   .00   .00   .00   .00   .00   .00   .00   .00   .00   .00   .00   .00   .00   .00   .00   .00
        .00   .00   .00   .00   .00   .00   .00   .00   .00   .00   .00   .00   .00   .00   .00
0 25    .00   .00   .00   .00   .00   .00   .00   .00   .00   .00   .00   .00   .00   .00   .00   .00   .00   .00   .00   .00
        .00   .00   .00   .00   .00   .00   .00   .00   .00   .00   .00   .00   .00   .00   .00   .00   .00   .00   .00   .00
        .00   .00   .00   .00   .00   .00   .00   .00   .00   .00   .00   .00   .00   .00   .00
0 26    .00   .00   .00   .00   .00   .00   .00   .00   .00   .00   .00   .00   .00   .00   .00   .00   .00   .00   .00   .00
        .00   .00   .00   .00   .00   .00   .00   .00   .00   .00   .00   .00   .00   .00   .00   .00   .00   .00   .00   .00
        .00   .00   .00   .00   .00   .00   .00   .00   .00   .00   .00   .00   .00   .00   .00
0 27    .00   .00   .00   .00   .00   .00   .00   .00   .00   .00   .00   .00   .00   .00   .00   .00   .00   .00   .00   .00
        .00   .00   .00   .00   .00   .00   .00   .00   .00   .00   .00   .00   .00   .00   .00   .00   .00   .00   .00   .00
        .00   .00   .00   .00   .00   .00   .00   .00   .00   .00   .00   .00   .00   .00   .00
0 28    .00   .00   .00   .00   .00   .00   .00   .00   .00   .00   .00   .00   .00   .00   .00   .00   .00   .00   .00   .00
        .00   .00   .00   .00   .00   .00   .00   .00   .00   .00   .01   .03   .01   .00   .00   .00   .00   .00   .00   .00
        .00   .00   .00   .00   .00   .00   .00   .00   .00   .00   .00   .00   .00   .00   .00
0 29    .00   .00   .00   .00   .00   .00   .00   .00   .00   .00   .00   .00   .00   .00   .00   .00   .00   .00   .00   .00
        .00   .00   .00   .00   .00   .00   .00   .00   .00   .00   .03   .32   .03   .00   .00   .00   .00   .00   .00   .00
        .00   .00   .00   .00   .00   .00   .00   .00   .00   .00   .00   .00   .00   .00   .00
0 30    .00   .00   .00   .00   .00   .00   .00   .00   .00   .00   .00   .00   .00   .00   .00   .00   .00   .00   .00   .00
        .00   .00   .00   .00   .00   .00   .00   .00   .00   .00   .01   .03   .01   .00   .00   .00   .00   .00   .00   .00
        .00   .00   .00   .00   .00   .00   .00   .00   .00   .00   .00   .00   .00   .00   .00
0 31    .00   .00   .00   .00   .00   .00   .00   .00   .00   .00   .00   .00   .00   .00   .00   .00   .00   .00   .00   .00
        .00   .00   .00   .00   .00   .00   .00   .00   .00   .00   .00   .00   .00   .00   .00   .00   .00   .00   .00   .00
        .00   .00   .00   .00   .00   .00   .00   .00   .00   .00   .00   .00   .00   .00   .00
0 32    .00   .00   .00   .00   .00   .00   .00   .00   .00   .00   .00   .00   .00   .00   .00   .00   .00   .00   .00   .00
        .00   .00   .00   .00   .00   .00   .00   .00   .00   .00   .00   .00   .00   .00   .00   .00   .00   .00   .00   .00
        .00   .00   .00   .00   .00   .00   .00   .00   .00   .00   .00   .00   .00   .00   .00
0 33    .00   .00   .00   .00   .00   .00   .00   .00   .00   .00   .00   .00   .00   .00   .00   .00   .00   .00   .00   .00
        .00   .00   .00   .00   .00   .00   .00   .00   .00   .00   .00   .00   .00   .00   .00   .00   .00   .00   .00   .00
        .00   .00   .00   .00   .00   .00   .00   .00   .00   .00   .00   .00   .00   .00   .00
0 34    .00   .00   .00   .00   .00   .00   .00   .00   .00   .00   .00   .00   .00   .00   .00   .00   .00   .00   .00   .00
        .00   .00   .00   .00   .00   .00   .00   .00   .00   .00   .00   .00   .00   .00   .00   .00   .00   .00   .00   .00
        .00   .00   .00   .00   .00   .00   .00   .00   .00   .00   .00   .00   .00   .00   .00
0 35    .00   .00   .00   .00   .00   .00   .00   .00   .00   .00   .00   .00   .00   .00   .00   .00   .00   .00   .00   .00
        .00   .00   .00   .00   .00   .00   .00   .00   .00   .00   .00   .00   .00   .00   .00   .00   .00   .00   .00   .00
        .00   .00   .00   .00   .00   .00   .00   .00   .00   .00   .00   .00   .00   .00   .00
0 36    .00   .00   .00   .00   .00   .00   .00   .00   .00   .00   .00   .00   .00   .00   .00   .00   .00   .00   .00   .00
        .00   .00   .00   .00   .00   .00   .00   .00   .00   .00   .00   .00   .00   .00   .00   .00   .00   .00   .00   .00
        .00   .00   .00   .00   .00   .00   .00   .00   .00   .00   .00   .00   .00   .00   .00
0 37    .00   .00   .00   .00   .00   .00   .00   .00   .00   .00   .00   .00   .00   .00   .00   .00   .00   .00   .00   .00
        .00   .00   .00   .00   .00   .00   .00   .00   .00   .00   .00   .00   .00   .00   .00   .00   .00   .00   .00   .00
        .00   .00   .00   .00   .00   .00   .00   .00   .00   .00   .00   .00   .00   .00   .00
0 38    .00   .00   .00   .00   .00   .00   .00   .00   .00   .00   .00   .00   .00   .00   .00   .00   .00   .00   .00   .00
        .00   .00   .00   .00   .00   .00   .00   .00   .00   .00   .00   .00   .00   .00   .00   .00   .00   .00   .00   .00
        .00   .00   .00   .00   .00   .00   .00   .00   .00   .00   .00   .00   .00   .00   .00
0 39    .00   .00   .00   .00   .00   .00   .00   .00   .00   .00   .00   .00   .00   .00   .00   .00   .00   .00   .00   .00
        .00   .00   .00   .00   .00   .00   .00   .00   .00   .00   .00   .00   .00   .00   .00   .00   .00   .00   .00   .00
        .00   .00   .00   .00   .00   .00   .00   .00   .00   .00   .00   .00   .00   .00   .00
0 40    .00   .00   .00   .00   .00   .00   .00   .00   .00   .00   .00   .00   .00   .00   .00   .00   .00   .00   .00   .00
        .00   .00   .00   .00   .00   .00   .00   .00   .00   .00   .00   .00   .00   .00   .00   .00   .00   .00   .00   .00
        .00   .00   .00   .00   .00   .00   .00   .00   .00   .00   .00   .00   .00   .00   .00
0 41    .00   .00   .00   .00   .00   .00   .00   .00   .00   .00   .00   .00   .00   .00   .00   .00   .00   .00   .00   .00
        .00   .00   .00   .00   .00   .00   .00   .00   .00   .00   .00   .00   .00   .00   .00   .00   .00   .00   .00   .00
        .00   .00   .00   .00   .00   .00   .00   .00   .00   .00   .00   .00   .00   .00   .00
0 42    .00   .00   .00   .00   .00   .00   .00   .00   .00   .00   .00   .00   .00   .00   .00   .00   .00   .00   .00   .00
        .00   .00   .00   .00   .00   .00   .00   .00   .00   .00   .00   .00   .00   .00   .00   .00   .00   .00   .00   .00
        .00   .00   .00   .00   .00   .00   .00   .00   .00   .00   .00   .00   .00   .00   .00
0 43    .00   .00   .00   .00   .00   .00   .00   .00   .00   .00   .00   .00   .00   .00   .00   .00   .00   .00   .00   .00
        .00   .00   .00   .00   .00   .00   .00   .00   .00   .00   .00   .00   .00   .00   .00   .00   .00   .00   .00   .00
        .00   .00   .00   .00   .00   .00   .00   .00   .00   .00   .00   .00   .00   .00   .00
0 44    .00   .00   .00   .00   .00   .00   .00   .00   .00   .00   .00   .00   .00   .00   .00   .00   .00   .00   .00   .00
        .00   .00   .00   .00   .00   .00   .00   .00   .00   .00   .00   .00   .00   .00   .00   .00   .00   .00   .00   .00
        .00   .00   .00   .00   .00   .00   .00   .00   .00   .00   .00   .00   .00   .00   .00
0


                              VOLUMETRIC BUDGET FOR ENTIRE MODEL AT END OF TIME STEP  1 IN STRESS PERIOD  1
                              -----------------------------------------------------------------------------
0                   CUMULATIVE VOLUMES      L**3                                     RATES FOR THIS TIME STEP      L**3/T
                    ------------------                                               ------------------------

                          IN:                                                                    IN:
                          ---                                                                    ---
                            STORAGE =    287.62                                                    STORAGE =    .96280    
                      CONSTANT HEAD =    .00000                                              CONSTANT HEAD =    .00000    
                              WELLS =    .00000                                                      WELLS =    .00000    
                      RIVER LEAKAGE =    .58251E-01                                          RIVER LEAKAGE =    .19500E-03
0                          TOTAL IN =    287.67                                                   TOTAL IN =    .96300    
0                        OUT:                                                                   OUT:
                         ----                                                                   ----
                            STORAGE =    .00000                                                    STORAGE =    .00000    
                      CONSTANT HEAD =    .00000                                              CONSTANT HEAD =    .00000    
                              WELLS =    287.67                                                      WELLS =    .96300    
                      RIVER LEAKAGE =    .00000                                              RIVER LEAKAGE =    .00000    
0                         TOTAL OUT =    287.67                                                  TOTAL OUT =    .96300    
0                          IN - OUT =   -.91553E-04                                               IN - OUT =   -.35763E-06
0               PERCENT DISCREPANCY =                 .00                              PERCENT DISCREPANCY =                 .00



0


          TIME SUMMARY AT END OF TIME STEP  1 IN STRESS PERIOD  1
                               SECONDS        MINUTES         HOURS          DAYS           YEARS
                           ---------------------------------------------------------------------------
      TIME STEP LENGTH         298.728        4.97879        .829799E-01    .345750E-02    .946611E-05
    STRESS PERIOD TIME         298.728        4.97879        .829799E-01    .345750E-02    .946611E-05
 TOTAL SIMULATION TIME         298.728        4.97879        .829799E-01    .345750E-02    .946611E-05
1
     3 ITERATIONS FOR TIME STEP   2 IN STRESS PERIOD  1
0MAXIMUM HEAD CHANGE FOR EACH ITERATION:
0 HEAD CHANGE LAYER,ROW,COL HEAD CHANGE LAYER,ROW,COL HEAD CHANGE LAYER,ROW,COL HEAD CHANGE LAYER,ROW,COL HEAD CHANGE LAYER,ROW,COL
 ------------------------------------------------------------------------------------------------------------------------------------
   -.2807     (  1, 29, 32)  -.3955E-02 (  1, 30, 31)  -.4170E-04 (  1, 28, 33)
0
0HEAD/DRAWDOWN PRINTOUT FLAG = 1     TOTAL BUDGET PRINTOUT FLAG = 1     CELL-BY-CELL FLOW TERM FLAG = 0
0OUTPUT FLAGS FOR ALL LAYERS ARE THE SAME:
   HEAD    DRAWDOWN  HEAD  DRAWDOWN
 PRINTOUT  PRINTOUT  SAVE    SAVE
 ----------------------------------
     0         1       0       0
1                  DRAWDOWN IN LAYER  1 AT END OF TIME STEP  2 IN STRESS PERIOD  1
           -----------------------------------------------------------------------

         1     2     3     4     5     6     7     8     9    10    11    12    13    14    15    16    17    18    19    20
        21    22    23    24    25    26    27    28    29    30    31    32    33    34    35    36    37    38    39    40
        41    42    43    44    45    46    47    48    49    50    51    52    53    54    55
 ................................................................................................................................
0  1    .00   .00   .00   .00   .00   .00   .00   .00   .00   .00   .00   .00   .00   .00   .00   .00   .00   .00   .00   .00
        .00   .00   .00   .00   .00   .00   .00   .00   .00   .00   .00   .00   .00   .00   .00   .00   .00   .00   .00   .00
        .00   .00   .00   .00   .00   .00   .00   .00   .00   .00   .00   .00   .00   .00   .00
0  2    .00   .00   .00   .00   .00   .00   .00   .00   .00   .00   .00   .00   .00   .00   .00   .00   .00   .00   .00   .00
        .00   .00   .00   .00   .00   .00   .00   .00   .00   .00   .00   .00   .00   .00   .00   .00   .00   .00   .00   .00
        .00   .00   .00   .00   .00   .00   .00   .00   .00   .00   .00   .00   .00   .00   .00
0  3    .00   .00   .00   .00   .00   .00   .00   .00   .00   .00   .00   .00   .00   .00   .00   .00   .00   .00   .00   .00
        .00   .00   .00   .00   .00   .00   .00   .00   .00   .00   .00   .00   .00   .00   .00   .00   .00   .00   .00   .00
        .00   .00   .00   .00   .00   .00   .00   .00   .00   .00   .00   .00   .00   .00   .00
0  4    .00   .00   .00   .00   .00   .00   .00   .00   .00   .00   .00   .00   .00   .00   .00   .00   .00   .00   .00   .00
        .00   .00   .00   .00   .00   .00   .00   .00   .00   .00   .00   .00   .00   .00   .00   .00   .00   .00   .00   .00
        .00   .00   .00   .00   .00   .00   .00   .00   .00   .00   .00   .00   .00   .00   .00
0  5    .00   .00   .00   .00   .00   .00   .00   .00   .00   .00   .00   .00   .00   .00   .00   .00   .00   .00   .00   .00
        .00   .00   .00   .00   .00   .00   .00   .00   .00   .00   .00   .00   .00   .00   .00   .00   .00   .00   .00   .00
        .00   .00   .00   .00   .00   .00   .00   .00   .00   .00   .00   .00   .00   .00   .00
0  6    .00   .00   .00   .00   .00   .00   .00   .00   .00   .00   .00   .00   .00   .00   .00   .00   .00   .00   .00   .00
        .00   .00   .00   .00   .00   .00   .00   .00   .00   .00   .00   .00   .00   .00   .00   .00   .00   .00   .00   .00
        .00   .00   .00   .00   .00   .00   .00   .00   .00   .00   .00   .00   .00   .00   .00
0  7    .00   .00   .00   .00   .00   .00   .00   .00   .00   .00   .00   .00   .00   .00   .00   .00   .00   .00   .00   .00
        .00   .00   .00   .00   .00   .00   .00   .00   .00   .00   .00   .00   .00   .00   .00   .00   .00   .00   .00   .00
        .00   .00   .00   .00   .00   .00   .00   .00   .00   .00   .00   .00   .00   .00   .00
0  8    .00   .00   .00   .00   .00   .00   .00   .00   .00   .00   .00   .00   .00   .00   .00   .00   .00   .00   .00   .00
        .00   .00   .00   .00   .00   .00   .00   .00   .00   .00   .00   .00   .00   .00   .00   .00   .00   .00   .00   .00
        .00   .00   .00   .00   .00   .00   .00   .00   .00   .00   .00   .00   .00   .00   .00
0  9    .00   .00   .00   .00   .00   .00   .00   .00   .00   .00   .00   .00   .00   .00   .00   .00   .00   .00   .00   .00
        .00   .00   .00   .00   .00   .00   .00   .00   .00   .00   .00   .00   .00   .00   .00   .00   .00   .00   .00   .00
        .00   .00   .00   .00   .00   .00   .00   .00   .00   .00   .00   .00   .00   .00   .00
0 10    .00   .00   .00   .00   .00   .00   .00   .00   .00   .00   .00   .00   .00   .00   .00   .00   .00   .00   .00   .00
        .00   .00   .00   .00   .00   .00   .00   .00   .00   .00   .00   .00   .00   .00   .00   .00   .00   .00   .00   .00
        .00   .00   .00   .00   .00   .00   .00   .00   .00   .00   .00   .00   .00   .00   .00
0 11    .00   .00   .00   .00   .00   .00   .00   .00   .00   .00   .00   .00   .00   .00   .00   .00   .00   .00   .00   .00
        .00   .00   .00   .00   .00   .00   .00   .00   .00   .00   .00   .00   .00   .00   .00   .00   .00   .00   .00   .00
        .00   .00   .00   .00   .00   .00   .00   .00   .00   .00   .00   .00   .00   .00   .00
0 12    .00   .00   .00   .00   .00   .00   .00   .00   .00   .00   .00   .00   .00   .00   .00   .00   .00   .00   .00   .00
        .00   .00   .00   .00   .00   .00   .00   .00   .00   .00   .00   .00   .00   .00   .00   .00   .00   .00   .00   .00
        .00   .00   .00   .00   .00   .00   .00   .00   .00   .00   .00   .00   .00   .00   .00
0 13    .00   .00   .00   .00   .00   .00   .00   .00   .00   .00   .00   .00   .00   .00   .00   .00   .00   .00   .00   .00
        .00   .00   .00   .00   .00   .00   .00   .00   .00   .00   .00   .00   .00   .00   .00   .00   .00   .00   .00   .00
        .00   .00   .00   .00   .00   .00   .00   .00   .00   .00   .00   .00   .00   .00   .00
0 14    .00   .00   .00   .00   .00   .00   .00   .00   .00   .00   .00   .00   .00   .00   .00   .00   .00   .00   .00   .00
        .00   .00   .00   .00   .00   .00   .00   .00   .00   .00   .00   .00   .00   .00   .00   .00   .00   .00   .00   .00
        .00   .00   .00   .00   .00   .00   .00   .00   .00   .00   .00   .00   .00   .00   .00
0 15    .00   .00   .00   .00   .00   .00   .00   .00   .00   .00   .00   .00   .00   .00   .00   .00   .00   .00   .00   .00
        .00   .00   .00   .00   .00   .00   .00   .00   .00   .00   .00   .00   .00   .00   .00   .00   .00   .00   .00   .00
        .00   .00   .00   .00   .00   .00   .00   .00   .00   .00   .00   .00   .00   .00   .00
0 16    .00   .00   .00   .00   .00   .00   .00   .00   .00   .00   .00   .00   .00   .00   .00   .00   .00   .00   .00   .00
        .00   .00   .00   .00   .00   .00   .00   .00   .00   .00   .00   .00   .00   .00   .00   .00   .00   .00   .00   .00
        .00   .00   .00   .00   .00   .00   .00   .00   .00   .00   .00   .00   .00   .00   .00
0 17    .00   .00   .00   .00   .00   .00   .00   .00   .00   .00   .00   .00   .00   .00   .00   .00   .00   .00   .00   .00
        .00   .00   .00   .00   .00   .00   .00   .00   .00   .00   .00   .00   .00   .00   .00   .00   .00   .00   .00   .00
        .00   .00   .00   .00   .00   .00   .00   .00   .00   .00   .00   .00   .00   .00   .00
0 18    .00   .00   .00   .00   .00   .00   .00   .00   .00   .00   .00   .00   .00   .00   .00   .00   .00   .00   .00   .00
        .00   .00   .00   .00   .00   .00   .00   .00   .00   .00   .00   .00   .00   .00   .00   .00   .00   .00   .00   .00
        .00   .00   .00   .00   .00   .00   .00   .00   .00   .00   .00   .00   .00   .00   .00
0 19    .00   .00   .00   .00   .00   .00   .00   .00   .00   .00   .00   .00   .00   .00   .00   .00   .00   .00   .00   .00
        .00   .00   .00   .00   .00   .00   .00   .00   .00   .00   .00   .00   .00   .00   .00   .00   .00   .00   .00   .00
        .00   .00   .00   .00   .00   .00   .00   .00   .00   .00   .00   .00   .00   .00   .00
0 20    .00   .00   .00   .00   .00   .00   .00   .00   .00   .00   .00   .00   .00   .00   .00   .00   .00   .00   .00   .00
        .00   .00   .00   .00   .00   .00   .00   .00   .00   .00   .00   .00   .00   .00   .00   .00   .00   .00   .00   .00
        .00   .00   .00   .00   .00   .00   .00   .00   .00   .00   .00   .00   .00   .00   .00
0 21    .00   .00   .00   .00   .00   .00   .00   .00   .00   .00   .00   .00   .00   .00   .00   .00   .00   .00   .00   .00
        .00   .00   .00   .00   .00   .00   .00   .00   .00   .00   .00   .00   .00   .00   .00   .00   .00   .00   .00   .00
        .00   .00   .00   .00   .00   .00   .00   .00   .00   .00   .00   .00   .00   .00   .00
0 22    .00   .00   .00   .00   .00   .00   .00   .00   .00   .00   .00   .00   .00   .00   .00   .00   .00   .00   .00   .00
        .00   .00   .00   .00   .00   .00   .00   .00   .00   .00   .00   .00   .00   .00   .00   .00   .00   .00   .00   .00
        .00   .00   .00   .00   .00   .00   .00   .00   .00   .00   .00   .00   .00   .00   .00
0 23    .00   .00   .00   .00   .00   .00   .00   .00   .00   .00   .00   .00   .00   .00   .00   .00   .00   .00   .00   .00
        .00   .00   .00   .00   .00   .00   .00   .00   .00   .00   .00   .00   .00   .00   .00   .00   .00   .00   .00   .00
        .00   .00   .00   .00   .00   .00   .00   .00   .00   .00   .00   .00   .00   .00   .00
0 24    .00   .00   .00   .00   .00   .00   .00   .00   .00   .00   .00   .00   .00   .00   .00   .00   .00   .00   .00   .00
        .00   .00   .00   .00   .00   .00   .00   .00   .00   .00   .00   .00   .00   .00   .00   .00   .00   .00   .00   .00
        .00   .00   .00   .00   .00   .00   .00   .00   .00   .00   .00   .00   .00   .00   .00
0 25    .00   .00   .00   .00   .00   .00   .00   .00   .00   .00   .00   .00   .00   .00   .00   .00   .00   .00   .00   .00
        .00   .00   .00   .00   .00   .00   .00   .00   .00   .00   .00   .00   .00   .00   .00   .00   .00   .00   .00   .00
        .00   .00   .00   .00   .00   .00   .00   .00   .00   .00   .00   .00   .00   .00   .00
0 26    .00   .00   .00   .00   .00   .00   .00   .00   .00   .00   .00   .00   .00   .00   .00   .00   .00   .00   .00   .00
        .00   .00   .00   .00   .00   .00   .00   .00   .00   .00   .00   .00   .00   .00   .00   .00   .00   .00   .00   .00
        .00   .00   .00   .00   .00   .00   .00   .00   .00   .00   .00   .00   .00   .00   .00
0 27    .00   .00   .00   .00   .00   .00   .00   .00   .00   .00   .00   .00   .00   .00   .00   .00   .00   .00   .00   .00
        .00   .00   .00   .00   .00   .00   .00   .00   .00   .00   .00   .01   .00   .00   .00   .00   .00   .00   .00   .00
        .00   .00   .00   .00   .00   .00   .00   .00   .00   .00   .00   .00   .00   .00   .00
0 28    .00   .00   .00   .00   .00   .00   .00   .00   .00   .00   .00   .00   .00   .00   .00   .00   .00   .00   .00   .00
        .00   .00   .00   .00   .00   .00   .00   .00   .00   .00   .02   .09   .02   .00   .00   .00   .00   .00   .00   .00
        .00   .00   .00   .00   .00   .00   .00   .00   .00   .00   .00   .00   .00   .00   .00
0 29    .00   .00   .00   .00   .00   .00   .00   .00   .00   .00   .00   .00   .00   .00   .00   .00   .00   .00   .00   .00
        .00   .00   .00   .00   .00   .00   .00   .00   .00   .01   .09   .60   .09   .01   .00   .00   .00   .00   .00   .00
        .00   .00   .00   .00   .00   .00   .00   .00   .00   .00   .00   .00   .00   .00   .00
0 30    .00   .00   .00   .00   .00   .00   .00   .00   .00   .00   .00   .00   .00   .00   .00   .00   .00   .00   .00   .00
        .00   .00   .00   .00   .00   .00   .00   .00   .00   .00   .02   .09   .02   .00   .00   .00   .00   .00   .00   .00
        .00   .00   .00   .00   .00   .00   .00   .00   .00   .00   .00   .00   .00   .00   .00
0 31    .00   .00   .00   .00   .00   .00   .00   .00   .00   .00   .00   .00   .00   .00   .00   .00   .00   .00   .00   .00
        .00   .00   .00   .00   .00   .00   .00   .00   .00   .00   .00   .01   .00   .00   .00   .00   .00   .00   .00   .00
        .00   .00   .00   .00   .00   .00   .00   .00   .00   .00   .00   .00   .00   .00   .00
0 32    .00   .00   .00   .00   .00   .00   .00   .00   .00   .00   .00   .00   .00   .00   .00   .00   .00   .00   .00   .00
        .00   .00   .00   .00   .00   .00   .00   .00   .00   .00   .00   .00   .00   .00   .00   .00   .00   .00   .00   .00
        .00   .00   .00   .00   .00   .00   .00   .00   .00   .00   .00   .00   .00   .00   .00
0 33    .00   .00   .00   .00   .00   .00   .00   .00   .00   .00   .00   .00   .00   .00   .00   .00   .00   .00   .00   .00
        .00   .00   .00   .00   .00   .00   .00   .00   .00   .00   .00   .00   .00   .00   .00   .00   .00   .00   .00   .00
        .00   .00   .00   .00   .00   .00   .00   .00   .00   .00   .00   .00   .00   .00   .00
0 34    .00   .00   .00   .00   .00   .00   .00   .00   .00   .00   .00   .00   .00   .00   .00   .00   .00   .00   .00   .00
        .00   .00   .00   .00   .00   .00   .00   .00   .00   .00   .00   .00   .00   .00   .00   .00   .00   .00   .00   .00
        .00   .00   .00   .00   .00   .00   .00   .00   .00   .00   .00   .00   .00   .00   .00
0 35    .00   .00   .00   .00   .00   .00   .00   .00   .00   .00   .00   .00   .00   .00   .00   .00   .00   .00   .00   .00
        .00   .00   .00   .00   .00   .00   .00   .00   .00   .00   .00   .00   .00   .00   .00   .00   .00   .00   .00   .00
        .00   .00   .00   .00   .00   .00   .00   .00   .00   .00   .00   .00   .00   .00   .00
0 36    .00   .00   .00   .00   .00   .00   .00   .00   .00   .00   .00   .00   .00   .00   .00   .00   .00   .00   .00   .00
        .00   .00   .00   .00   .00   .00   .00   .00   .00   .00   .00   .00   .00   .00   .00   .00   .00   .00   .00   .00
        .00   .00   .00   .00   .00   .00   .00   .00   .00   .00   .00   .00   .00   .00   .00
0 37    .00   .00   .00   .00   .00   .00   .00   .00   .00   .00   .00   .00   .00   .00   .00   .00   .00   .00   .00   .00
        .00   .00   .00   .00   .00   .00   .00   .00   .00   .00   .00   .00   .00   .00   .00   .00   .00   .00   .00   .00
        .00   .00   .00   .00   .00   .00   .00   .00   .00   .00   .00   .00   .00   .00   .00
0 38    .00   .00   .00   .00   .00   .00   .00   .00   .00   .00   .00   .00   .00   .00   .00   .00   .00   .00   .00   .00
        .00   .00   .00   .00   .00   .00   .00   .00   .00   .00   .00   .00   .00   .00   .00   .00   .00   .00   .00   .00
        .00   .00   .00   .00   .00   .00   .00   .00   .00   .00   .00   .00   .00   .00   .00
0 39    .00   .00   .00   .00   .00   .00   .00   .00   .00   .00   .00   .00   .00   .00   .00   .00   .00   .00   .00   .00
        .00   .00   .00   .00   .00   .00   .00   .00   .00   .00   .00   .00   .00   .00   .00   .00   .00   .00   .00   .00
        .00   .00   .00   .00   .00   .00   .00   .00   .00   .00   .00   .00   .00   .00   .00
0 40    .00   .00   .00   .00   .00   .00   .00   .00   .00   .00   .00   .00   .00   .00   .00   .00   .00   .00   .00   .00
        .00   .00   .00   .00   .00   .00   .00   .00   .00   .00   .00   .00   .00   .00   .00   .00   .00   .00   .00   .00
        .00   .00   .00   .00   .00   .00   .00   .00   .00   .00   .00   .00   .00   .00   .00
0 41    .00   .00   .00   .00   .00   .00   .00   .00   .00   .00   .00   .00   .00   .00   .00   .00   .00   .00   .00   .00
        .00   .00   .00   .00   .00   .00   .00   .00   .00   .00   .00   .00   .00   .00   .00   .00   .00   .00   .00   .00
        .00   .00   .00   .00   .00   .00   .00   .00   .00   .00   .00   .00   .00   .00   .00
0 42    .00   .00   .00   .00   .00   .00   .00   .00   .00   .00   .00   .00   .00   .00   .00   .00   .00   .00   .00   .00
        .00   .00   .00   .00   .00   .00   .00   .00   .00   .00   .00   .00   .00   .00   .00   .00   .00   .00   .00   .00
        .00   .00   .00   .00   .00   .00   .00   .00   .00   .00   .00   .00   .00   .00   .00
0 43    .00   .00   .00   .00   .00   .00   .00   .00   .00   .00   .00   .00   .00   .00   .00   .00   .00   .00   .00   .00
        .00   .00   .00   .00   .00   .00   .00   .00   .00   .00   .00   .00   .00   .00   .00   .00   .00   .00   .00   .00
        .00   .00   .00   .00   .00   .00   .00   .00   .00   .00   .00   .00   .00   .00   .00
0 44    .00   .00   .00   .00   .00   .00   .00   .00   .00   .00   .00   .00   .00   .00   .00   .00   .00   .00   .00   .00
        .00   .00   .00   .00   .00   .00   .00   .00   .00   .00   .00   .00   .00   .00   .00   .00   .00   .00   .00   .00
        .00   .00   .00   .00   .00   .00   .00   .00   .00   .00   .00   .00   .00   .00   .00
0


                              VOLUMETRIC BUDGET FOR ENTIRE MODEL AT END OF TIME STEP  2 IN STRESS PERIOD  1
                              -----------------------------------------------------------------------------
0                   CUMULATIVE VOLUMES      L**3                                     RATES FOR THIS TIME STEP      L**3/T
                    ------------------                                               ------------------------

                          IN:                                                                    IN:
                          ---                                                                    ---
                            STORAGE =    693.99                                                    STORAGE =    .96207    
                      CONSTANT HEAD =    .00000                                              CONSTANT HEAD =    .00000    
                              WELLS =    .00000                                                      WELLS =    .00000    
                      RIVER LEAKAGE =    .45135                                              RIVER LEAKAGE =    .93062E-03
0                          TOTAL IN =    694.45                                                   TOTAL IN =    .96300    
0                        OUT:                                                                   OUT:
                         ----                                                                   ----
                            STORAGE =    .00000                                                    STORAGE =    .00000    
                      CONSTANT HEAD =    .00000                                              CONSTANT HEAD =    .00000    
                              WELLS =    694.45                                                      WELLS =    .96300    
                      RIVER LEAKAGE =    .00000                                              RIVER LEAKAGE =    .00000    
0                         TOTAL OUT =    694.45                                                  TOTAL OUT =    .96300    
0                          IN - OUT =   -.54932E-03                                               IN - OUT =   -.10729E-05
0               PERCENT DISCREPANCY =                 .00                              PERCENT DISCREPANCY =                 .00



0


          TIME SUMMARY AT END OF TIME STEP  2 IN STRESS PERIOD  1
                               SECONDS        MINUTES         HOURS          DAYS           YEARS
                           ---------------------------------------------------------------------------
      TIME STEP LENGTH         422.401        7.04001        .117334        .488890E-02    .133851E-04
    STRESS PERIOD TIME         721.128        12.0188        .200313        .834639E-02    .228512E-04
 TOTAL SIMULATION TIME         721.128        12.0188        .200313        .834639E-02    .228512E-04
1
     3 ITERATIONS FOR TIME STEP   3 IN STRESS PERIOD  1
0MAXIMUM HEAD CHANGE FOR EACH ITERATION:
0 HEAD CHANGE LAYER,ROW,COL HEAD CHANGE LAYER,ROW,COL HEAD CHANGE LAYER,ROW,COL HEAD CHANGE LAYER,ROW,COL HEAD CHANGE LAYER,ROW,COL
 ------------------------------------------------------------------------------------------------------------------------------------
   -.2309     (  1, 29, 32)  -.5531E-02 (  1, 30, 31)  -.6795E-04 (  1, 29, 30)
0
0HEAD/DRAWDOWN PRINTOUT FLAG = 1     TOTAL BUDGET PRINTOUT FLAG = 1     CELL-BY-CELL FLOW TERM FLAG = 0
0OUTPUT FLAGS FOR ALL LAYERS ARE THE SAME:
   HEAD    DRAWDOWN  HEAD  DRAWDOWN
 PRINTOUT  PRINTOUT  SAVE    SAVE
 ----------------------------------
     0         1       0       0
1                  DRAWDOWN IN LAYER  1 AT END OF TIME STEP  3 IN STRESS PERIOD  1
           -----------------------------------------------------------------------

         1     2     3     4     5     6     7     8     9    10    11    12    13    14    15    16    17    18    19    20
        21    22    23    24    25    26    27    28    29    30    31    32    33    34    35    36    37    38    39    40
        41    42    43    44    45    46    47    48    49    50    51    52    53    54    55
 ................................................................................................................................
0  1    .00   .00   .00   .00   .00   .00   .00   .00   .00   .00   .00   .00   .00   .00   .00   .00   .00   .00   .00   .00
        .00   .00   .00   .00   .00   .00   .00   .00   .00   .00   .00   .00   .00   .00   .00   .00   .00   .00   .00   .00
        .00   .00   .00   .00   .00   .00   .00   .00   .00   .00   .00   .00   .00   .00   .00
0  2    .00   .00   .00   .00   .00   .00   .00   .00   .00   .00   .00   .00   .00   .00   .00   .00   .00   .00   .00   .00
        .00   .00   .00   .00   .00   .00   .00   .00   .00   .00   .00   .00   .00   .00   .00   .00   .00   .00   .00   .00
        .00   .00   .00   .00   .00   .00   .00   .00   .00   .00   .00   .00   .00   .00   .00
0  3    .00   .00   .00   .00   .00   .00   .00   .00   .00   .00   .00   .00   .00   .00   .00   .00   .00   .00   .00   .00
        .00   .00   .00   .00   .00   .00   .00   .00   .00   .00   .00   .00   .00   .00   .00   .00   .00   .00   .00   .00
        .00   .00   .00   .00   .00   .00   .00   .00   .00   .00   .00   .00   .00   .00   .00
0  4    .00   .00   .00   .00   .00   .00   .00   .00   .00   .00   .00   .00   .00   .00   .00   .00   .00   .00   .00   .00
        .00   .00   .00   .00   .00   .00   .00   .00   .00   .00   .00   .00   .00   .00   .00   .00   .00   .00   .00   .00
        .00   .00   .00   .00   .00   .00   .00   .00   .00   .00   .00   .00   .00   .00   .00
0  5    .00   .00   .00   .00   .00   .00   .00   .00   .00   .00   .00   .00   .00   .00   .00   .00   .00   .00   .00   .00
        .00   .00   .00   .00   .00   .00   .00   .00   .00   .00   .00   .00   .00   .00   .00   .00   .00   .00   .00   .00
        .00   .00   .00   .00   .00   .00   .00   .00   .00   .00   .00   .00   .00   .00   .00
0  6    .00   .00   .00   .00   .00   .00   .00   .00   .00   .00   .00   .00   .00   .00   .00   .00   .00   .00   .00   .00
        .00   .00   .00   .00   .00   .00   .00   .00   .00   .00   .00   .00   .00   .00   .00   .00   .00   .00   .00   .00
        .00   .00   .00   .00   .00   .00   .00   .00   .00   .00   .00   .00   .00   .00   .00
0  7    .00   .00   .00   .00   .00   .00   .00   .00   .00   .00   .00   .00   .00   .00   .00   .00   .00   .00   .00   .00
        .00   .00   .00   .00   .00   .00   .00   .00   .00   .00   .00   .00   .00   .00   .00   .00   .00   .00   .00   .00
        .00   .00   .00   .00   .00   .00   .00   .00   .00   .00   .00   .00   .00   .00   .00
0  8    .00   .00   .00   .00   .00   .00   .00   .00   .00   .00   .00   .00   .00   .00   .00   .00   .00   .00   .00   .00
        .00   .00   .00   .00   .00   .00   .00   .00   .00   .00   .00   .00   .00   .00   .00   .00   .00   .00   .00   .00
        .00   .00   .00   .00   .00   .00   .00   .00   .00   .00   .00   .00   .00   .00   .00
0  9    .00   .00   .00   .00   .00   .00   .00   .00   .00   .00   .00   .00   .00   .00   .00   .00   .00   .00   .00   .00
        .00   .00   .00   .00   .00   .00   .00   .00   .00   .00   .00   .00   .00   .00   .00   .00   .00   .00   .00   .00
        .00   .00   .00   .00   .00   .00   .00   .00   .00   .00   .00   .00   .00   .00   .00
0 10    .00   .00   .00   .00   .00   .00   .00   .00   .00   .00   .00   .00   .00   .00   .00   .00   .00   .00   .00   .00
        .00   .00   .00   .00   .00   .00   .00   .00   .00   .00   .00   .00   .00   .00   .00   .00   .00   .00   .00   .00
        .00   .00   .00   .00   .00   .00   .00   .00   .00   .00   .00   .00   .00   .00   .00
0 11    .00   .00   .00   .00   .00   .00   .00   .00   .00   .00   .00   .00   .00   .00   .00   .00   .00   .00   .00   .00
        .00   .00   .00   .00   .00   .00   .00   .00   .00   .00   .00   .00   .00   .00   .00   .00   .00   .00   .00   .00
        .00   .00   .00   .00   .00   .00   .00   .00   .00   .00   .00   .00   .00   .00   .00
0 12    .00   .00   .00   .00   .00   .00   .00   .00   .00   .00   .00   .00   .00   .00   .00   .00   .00   .00   .00   .00
        .00   .00   .00   .00   .00   .00   .00   .00   .00   .00   .00   .00   .00   .00   .00   .00   .00   .00   .00   .00
        .00   .00   .00   .00   .00   .00   .00   .00   .00   .00   .00   .00   .00   .00   .00
0 13    .00   .00   .00   .00   .00   .00   .00   .00   .00   .00   .00   .00   .00   .00   .00   .00   .00   .00   .00   .00
        .00   .00   .00   .00   .00   .00   .00   .00   .00   .00   .00   .00   .00   .00   .00   .00   .00   .00   .00   .00
        .00   .00   .00   .00   .00   .00   .00   .00   .00   .00   .00   .00   .00   .00   .00
0 14    .00   .00   .00   .00   .00   .00   .00   .00   .00   .00   .00   .00   .00   .00   .00   .00   .00   .00   .00   .00
        .00   .00   .00   .00   .00   .00   .00   .00   .00   .00   .00   .00   .00   .00   .00   .00   .00   .00   .00   .00
        .00   .00   .00   .00   .00   .00   .00   .00   .00   .00   .00   .00   .00   .00   .00
0 15    .00   .00   .00   .00   .00   .00   .00   .00   .00   .00   .00   .00   .00   .00   .00   .00   .00   .00   .00   .00
        .00   .00   .00   .00   .00   .00   .00   .00   .00   .00   .00   .00   .00   .00   .00   .00   .00   .00   .00   .00
        .00   .00   .00   .00   .00   .00   .00   .00   .00   .00   .00   .00   .00   .00   .00
0 16    .00   .00   .00   .00   .00   .00   .00   .00   .00   .00   .00   .00   .00   .00   .00   .00   .00   .00   .00   .00
        .00   .00   .00   .00   .00   .00   .00   .00   .00   .00   .00   .00   .00   .00   .00   .00   .00   .00   .00   .00
        .00   .00   .00   .00   .00   .00   .00   .00   .00   .00   .00   .00   .00   .00   .00
0 17    .00   .00   .00   .00   .00   .00   .00   .00   .00   .00   .00   .00   .00   .00   .00   .00   .00   .00   .00   .00
        .00   .00   .00   .00   .00   .00   .00   .00   .00   .00   .00   .00   .00   .00   .00   .00   .00   .00   .00   .00
        .00   .00   .00   .00   .00   .00   .00   .00   .00   .00   .00   .00   .00   .00   .00
0 18    .00   .00   .00   .00   .00   .00   .00   .00   .00   .00   .00   .00   .00   .00   .00   .00   .00   .00   .00   .00
        .00   .00   .00   .00   .00   .00   .00   .00   .00   .00   .00   .00   .00   .00   .00   .00   .00   .00   .00   .00
        .00   .00   .00   .00   .00   .00   .00   .00   .00   .00   .00   .00   .00   .00   .00
0 19    .00   .00   .00   .00   .00   .00   .00   .00   .00   .00   .00   .00   .00   .00   .00   .00   .00   .00   .00   .00
        .00   .00   .00   .00   .00   .00   .00   .00   .00   .00   .00   .00   .00   .00   .00   .00   .00   .00   .00   .00
        .00   .00   .00   .00   .00   .00   .00   .00   .00   .00   .00   .00   .00   .00   .00
0 20    .00   .00   .00   .00   .00   .00   .00   .00   .00   .00   .00   .00   .00   .00   .00   .00   .00   .00   .00   .00
        .00   .00   .00   .00   .00   .00   .00   .00   .00   .00   .00   .00   .00   .00   .00   .00   .00   .00   .00   .00
        .00   .00   .00   .00   .00   .00   .00   .00   .00   .00   .00   .00   .00   .00   .00
0 21    .00   .00   .00   .00   .00   .00   .00   .00   .00   .00   .00   .00   .00   .00   .00   .00   .00   .00   .00   .00
        .00   .00   .00   .00   .00   .00   .00   .00   .00   .00   .00   .00   .00   .00   .00   .00   .00   .00   .00   .00
        .00   .00   .00   .00   .00   .00   .00   .00   .00   .00   .00   .00   .00   .00   .00
0 22    .00   .00   .00   .00   .00   .00   .00   .00   .00   .00   .00   .00   .00   .00   .00   .00   .00   .00   .00   .00
        .00   .00   .00   .00   .00   .00   .00   .00   .00   .00   .00   .00   .00   .00   .00   .00   .00   .00   .00   .00
        .00   .00   .00   .00   .00   .00   .00   .00   .00   .00   .00   .00   .00   .00   .00
0 23    .00   .00   .00   .00   .00   .00   .00   .00   .00   .00   .00   .00   .00   .00   .00   .00   .00   .00   .00   .00
        .00   .00   .00   .00   .00   .00   .00   .00   .00   .00   .00   .00   .00   .00   .00   .00   .00   .00   .00   .00
        .00   .00   .00   .00   .00   .00   .00   .00   .00   .00   .00   .00   .00   .00   .00
0 24    .00   .00   .00   .00   .00   .00   .00   .00   .00   .00   .00   .00   .00   .00   .00   .00   .00   .00   .00   .00
        .00   .00   .00   .00   .00   .00   .00   .00   .00   .00   .00   .00   .00   .00   .00   .00   .00   .00   .00   .00
        .00   .00   .00   .00   .00   .00   .00   .00   .00   .00   .00   .00   .00   .00   .00
0 25    .00   .00   .00   .00   .00   .00   .00   .00   .00   .00   .00   .00   .00   .00   .00   .00   .00   .00   .00   .00
        .00   .00   .00   .00   .00   .00   .00   .00   .00   .00   .00   .00   .00   .00   .00   .00   .00   .00   .00   .00
        .00   .00   .00   .00   .00   .00   .00   .00   .00   .00   .00   .00   .00   .00   .00
0 26    .00   .00   .00   .00   .00   .00   .00   .00   .00   .00   .00   .00   .00   .00   .00   .00   .00   .00   .00   .00
        .00   .00   .00   .00   .00   .00   .00   .00   .00   .00   .00   .01   .00   .00   .00   .00   .00   .00   .00   .00
        .00   .00   .00   .00   .00   .00   .00   .00   .00   .00   .00   .00   .00   .00   .00
0 27    .00   .00   .00   .00   .00   .00   .00   .00   .00   .00   .00   .00   .00   .00   .00   .00   .00   .00   .00   .00
        .00   .00   .00   .00   .00   .00   .00   .00   .00   .00   .02   .03   .02   .00   .00   .00   .00   .00   .00   .00
        .00   .00   .00   .00   .00   .00   .00   .00   .00   .00   .00   .00   .00   .00   .00
0 28    .00   .00   .00   .00   .00   .00   .00   .00   .00   .00   .00   .00   .00   .00   .00   .00   .00   .00   .00   .00
        .00   .00   .00   .00   .00   .00   .00   .00   .00   .02   .06   .17   .06   .02   .00   .00   .00   .00   .00   .00
        .00   .00   .00   .00   .00   .00   .00   .00   .00   .00   .00   .00   .00   .00   .00
0 29    .00   .00   .00   .00   .00   .00   .00   .00   .00   .00   .00   .00   .00   .00   .00   .00   .00   .00   .00   .00
        .00   .00   .00   .00   .00   .00   .00   .00   .01   .03   .17   .84   .17   .03   .01   .00   .00   .00   .00   .00
        .00   .00   .00   .00   .00   .00   .00   .00   .00   .00   .00   .00   .00   .00   .00
0 30    .00   .00   .00   .00   .00   .00   .00   .00   .00   .00   .00   .00   .00   .00   .00   .00   .00   .00   .00   .00
        .00   .00   .00   .00   .00   .00   .00   .00   .00   .02   .06   .17   .06   .02   .00   .00   .00   .00   .00   .00
        .00   .00   .00   .00   .00   .00   .00   .00   .00   .00   .00   .00   .00   .00   .00
0 31    .00   .00   .00   .00   .00   .00   .00   .00   .00   .00   .00   .00   .00   .00   .00   .00   .00   .00   .00   .00
        .00   .00   .00   .00   .00   .00   .00   .00   .00   .00   .02   .03   .02   .00   .00   .00   .00   .00   .00   .00
        .00   .00   .00   .00   .00   .00   .00   .00   .00   .00   .00   .00   .00   .00   .00
0 32    .00   .00   .00   .00   .00   .00   .00   .00   .00   .00   .00   .00   .00   .00   .00   .00   .00   .00   .00   .00
        .00   .00   .00   .00   .00   .00   .00   .00   .00   .00   .00   .01   .00   .00   .00   .00   .00   .00   .00   .00
        .00   .00   .00   .00   .00   .00   .00   .00   .00   .00   .00   .00   .00   .00   .00
0 33    .00   .00   .00   .00   .00   .00   .00   .00   .00   .00   .00   .00   .00   .00   .00   .00   .00   .00   .00   .00
        .00   .00   .00   .00   .00   .00   .00   .00   .00   .00   .00   .00   .00   .00   .00   .00   .00   .00   .00   .00
        .00   .00   .00   .00   .00   .00   .00   .00   .00   .00   .00   .00   .00   .00   .00
0 34    .00   .00   .00   .00   .00   .00   .00   .00   .00   .00   .00   .00   .00   .00   .00   .00   .00   .00   .00   .00
        .00   .00   .00   .00   .00   .00   .00   .00   .00   .00   .00   .00   .00   .00   .00   .00   .00   .00   .00   .00
        .00   .00   .00   .00   .00   .00   .00   .00   .00   .00   .00   .00   .00   .00   .00
0 35    .00   .00   .00   .00   .00   .00   .00   .00   .00   .00   .00   .00   .00   .00   .00   .00   .00   .00   .00   .00
        .00   .00   .00   .00   .00   .00   .00   .00   .00   .00   .00   .00   .00   .00   .00   .00   .00   .00   .00   .00
        .00   .00   .00   .00   .00   .00   .00   .00   .00   .00   .00   .00   .00   .00   .00
0 36    .00   .00   .00   .00   .00   .00   .00   .00   .00   .00   .00   .00   .00   .00   .00   .00   .00   .00   .00   .00
        .00   .00   .00   .00   .00   .00   .00   .00   .00   .00   .00   .00   .00   .00   .00   .00   .00   .00   .00   .00
        .00   .00   .00   .00   .00   .00   .00   .00   .00   .00   .00   .00   .00   .00   .00
0 37    .00   .00   .00   .00   .00   .00   .00   .00   .00   .00   .00   .00   .00   .00   .00   .00   .00   .00   .00   .00
        .00   .00   .00   .00   .00   .00   .00   .00   .00   .00   .00   .00   .00   .00   .00   .00   .00   .00   .00   .00
        .00   .00   .00   .00   .00   .00   .00   .00   .00   .00   .00   .00   .00   .00   .00
0 38    .00   .00   .00   .00   .00   .00   .00   .00   .00   .00   .00   .00   .00   .00   .00   .00   .00   .00   .00   .00
        .00   .00   .00   .00   .00   .00   .00   .00   .00   .00   .00   .00   .00   .00   .00   .00   .00   .00   .00   .00
        .00   .00   .00   .00   .00   .00   .00   .00   .00   .00   .00   .00   .00   .00   .00
0 39    .00   .00   .00   .00   .00   .00   .00   .00   .00   .00   .00   .00   .00   .00   .00   .00   .00   .00   .00   .00
        .00   .00   .00   .00   .00   .00   .00   .00   .00   .00   .00   .00   .00   .00   .00   .00   .00   .00   .00   .00
        .00   .00   .00   .00   .00   .00   .00   .00   .00   .00   .00   .00   .00   .00   .00
0 40    .00   .00   .00   .00   .00   .00   .00   .00   .00   .00   .00   .00   .00   .00   .00   .00   .00   .00   .00   .00
        .00   .00   .00   .00   .00   .00   .00   .00   .00   .00   .00   .00   .00   .00   .00   .00   .00   .00   .00   .00
        .00   .00   .00   .00   .00   .00   .00   .00   .00   .00   .00   .00   .00   .00   .00
0 41    .00   .00   .00   .00   .00   .00   .00   .00   .00   .00   .00   .00   .00   .00   .00   .00   .00   .00   .00   .00
        .00   .00   .00   .00   .00   .00   .00   .00   .00   .00   .00   .00   .00   .00   .00   .00   .00   .00   .00   .00
        .00   .00   .00   .00   .00   .00   .00   .00   .00   .00   .00   .00   .00   .00   .00
0 42    .00   .00   .00   .00   .00   .00   .00   .00   .00   .00   .00   .00   .00   .00   .00   .00   .00   .00   .00   .00
        .00   .00   .00   .00   .00   .00   .00   .00   .00   .00   .00   .00   .00   .00   .00   .00   .00   .00   .00   .00
        .00   .00   .00   .00   .00   .00   .00   .00   .00   .00   .00   .00   .00   .00   .00
0 43    .00   .00   .00   .00   .00   .00   .00   .00   .00   .00   .00   .00   .00   .00   .00   .00   .00   .00   .00   .00
        .00   .00   .00   .00   .00   .00   .00   .00   .00   .00   .00   .00   .00   .00   .00   .00   .00   .00   .00   .00
        .00   .00   .00   .00   .00   .00   .00   .00   .00   .00   .00   .00   .00   .00   .00
0 44    .00   .00   .00   .00   .00   .00   .00   .00   .00   .00   .00   .00   .00   .00   .00   .00   .00   .00   .00   .00
        .00   .00   .00   .00   .00   .00   .00   .00   .00   .00   .00   .00   .00   .00   .00   .00   .00   .00   .00   .00
        .00   .00   .00   .00   .00   .00   .00   .00   .00   .00   .00   .00   .00   .00   .00
0


                              VOLUMETRIC BUDGET FOR ENTIRE MODEL AT END OF TIME STEP  3 IN STRESS PERIOD  1
                              -----------------------------------------------------------------------------
0                   CUMULATIVE VOLUMES      L**3                                     RATES FOR THIS TIME STEP      L**3/T
                    ------------------                                               ------------------------

                          IN:                                                                    IN:
                          ---                                                                    ---
                            STORAGE =    1267.6                                                    STORAGE =    .96034    
                      CONSTANT HEAD =    .00000                                              CONSTANT HEAD =    .00000    
                              WELLS =    .00000                                                      WELLS =    .00000    
                      RIVER LEAKAGE =    2.0396                                              RIVER LEAKAGE =    .26592E-02
0                          TOTAL IN =    1269.6                                                   TOTAL IN =    .96300    
0                        OUT:                                                                   OUT:
                         ----                                                                   ----
                            STORAGE =    .00000                                                    STORAGE =    .00000    
                      CONSTANT HEAD =    .00000                                              CONSTANT HEAD =    .00000    
                              WELLS =    1269.6                                                      WELLS =    .96300    
                      RIVER LEAKAGE =    .00000                                              RIVER LEAKAGE =    .00000    
0                         TOTAL OUT =    1269.6                                                  TOTAL OUT =    .96300    
0                          IN - OUT =   -.29297E-02                                               IN - OUT =   -.40531E-05
0               PERCENT DISCREPANCY =                 .00                              PERCENT DISCREPANCY =                 .00



0


          TIME SUMMARY AT END OF TIME STEP  3 IN STRESS PERIOD  1
                               SECONDS        MINUTES         HOURS          DAYS           YEARS
                           ---------------------------------------------------------------------------
      TIME STEP LENGTH         597.275        9.95458        .165910        .691290E-02    .189265E-04
    STRESS PERIOD TIME         1318.40        21.9734        .366223        .152593E-01    .417777E-04
 TOTAL SIMULATION TIME         1318.40        21.9734        .366223        .152593E-01    .417777E-04
1
     4 ITERATIONS FOR TIME STEP   4 IN STRESS PERIOD  1
0MAXIMUM HEAD CHANGE FOR EACH ITERATION:
0 HEAD CHANGE LAYER,ROW,COL HEAD CHANGE LAYER,ROW,COL HEAD CHANGE LAYER,ROW,COL HEAD CHANGE LAYER,ROW,COL HEAD CHANGE LAYER,ROW,COL
 ------------------------------------------------------------------------------------------------------------------------------------
   -.1828     (  1, 29, 32)  -.7690E-02 (  1, 30, 31)  -.1326E-03 (  1, 29, 30)   .4203E-05 (  1, 31, 31)
0
0HEAD/DRAWDOWN PRINTOUT FLAG = 1     TOTAL BUDGET PRINTOUT FLAG = 1     CELL-BY-CELL FLOW TERM FLAG = 0
0OUTPUT FLAGS FOR ALL LAYERS ARE THE SAME:
   HEAD    DRAWDOWN  HEAD  DRAWDOWN
 PRINTOUT  PRINTOUT  SAVE    SAVE
 ----------------------------------
     0         1       0       0
1                  DRAWDOWN IN LAYER  1 AT END OF TIME STEP  4 IN STRESS PERIOD  1
           -----------------------------------------------------------------------

         1     2     3     4     5     6     7     8     9    10    11    12    13    14    15    16    17    18    19    20
        21    22    23    24    25    26    27    28    29    30    31    32    33    34    35    36    37    38    39    40
        41    42    43    44    45    46    47    48    49    50    51    52    53    54    55
 ................................................................................................................................
0  1    .00   .00   .00   .00   .00   .00   .00   .00   .00   .00   .00   .00   .00   .00   .00   .00   .00   .00   .00   .00
        .00   .00   .00   .00   .00   .00   .00   .00   .00   .00   .00   .00   .00   .00   .00   .00   .00   .00   .00   .00
        .00   .00   .00   .00   .00   .00   .00   .00   .00   .00   .00   .00   .00   .00   .00
0  2    .00   .00   .00   .00   .00   .00   .00   .00   .00   .00   .00   .00   .00   .00   .00   .00   .00   .00   .00   .00
        .00   .00   .00   .00   .00   .00   .00   .00   .00   .00   .00   .00   .00   .00   .00   .00   .00   .00   .00   .00
        .00   .00   .00   .00   .00   .00   .00   .00   .00   .00   .00   .00   .00   .00   .00
0  3    .00   .00   .00   .00   .00   .00   .00   .00   .00   .00   .00   .00   .00   .00   .00   .00   .00   .00   .00   .00
        .00   .00   .00   .00   .00   .00   .00   .00   .00   .00   .00   .00   .00   .00   .00   .00   .00   .00   .00   .00
        .00   .00   .00   .00   .00   .00   .00   .00   .00   .00   .00   .00   .00   .00   .00
0  4    .00   .00   .00   .00   .00   .00   .00   .00   .00   .00   .00   .00   .00   .00   .00   .00   .00   .00   .00   .00
        .00   .00   .00   .00   .00   .00   .00   .00   .00   .00   .00   .00   .00   .00   .00   .00   .00   .00   .00   .00
        .00   .00   .00   .00   .00   .00   .00   .00   .00   .00   .00   .00   .00   .00   .00
0  5    .00   .00   .00   .00   .00   .00   .00   .00   .00   .00   .00   .00   .00   .00   .00   .00   .00   .00   .00   .00
        .00   .00   .00   .00   .00   .00   .00   .00   .00   .00   .00   .00   .00   .00   .00   .00   .00   .00   .00   .00
        .00   .00   .00   .00   .00   .00   .00   .00   .00   .00   .00   .00   .00   .00   .00
0  6    .00   .00   .00   .00   .00   .00   .00   .00   .00   .00   .00   .00   .00   .00   .00   .00   .00   .00   .00   .00
        .00   .00   .00   .00   .00   .00   .00   .00   .00   .00   .00   .00   .00   .00   .00   .00   .00   .00   .00   .00
        .00   .00   .00   .00   .00   .00   .00   .00   .00   .00   .00   .00   .00   .00   .00
0  7    .00   .00   .00   .00   .00   .00   .00   .00   .00   .00   .00   .00   .00   .00   .00   .00   .00   .00   .00   .00
        .00   .00   .00   .00   .00   .00   .00   .00   .00   .00   .00   .00   .00   .00   .00   .00   .00   .00   .00   .00
        .00   .00   .00   .00   .00   .00   .00   .00   .00   .00   .00   .00   .00   .00   .00
0  8    .00   .00   .00   .00   .00   .00   .00   .00   .00   .00   .00   .00   .00   .00   .00   .00   .00   .00   .00   .00
        .00   .00   .00   .00   .00   .00   .00   .00   .00   .00   .00   .00   .00   .00   .00   .00   .00   .00   .00   .00
        .00   .00   .00   .00   .00   .00   .00   .00   .00   .00   .00   .00   .00   .00   .00
0  9    .00   .00   .00   .00   .00   .00   .00   .00   .00   .00   .00   .00   .00   .00   .00   .00   .00   .00   .00   .00
        .00   .00   .00   .00   .00   .00   .00   .00   .00   .00   .00   .00   .00   .00   .00   .00   .00   .00   .00   .00
        .00   .00   .00   .00   .00   .00   .00   .00   .00   .00   .00   .00   .00   .00   .00
0 10    .00   .00   .00   .00   .00   .00   .00   .00   .00   .00   .00   .00   .00   .00   .00   .00   .00   .00   .00   .00
        .00   .00   .00   .00   .00   .00   .00   .00   .00   .00   .00   .00   .00   .00   .00   .00   .00   .00   .00   .00
        .00   .00   .00   .00   .00   .00   .00   .00   .00   .00   .00   .00   .00   .00   .00
0 11    .00   .00   .00   .00   .00   .00   .00   .00   .00   .00   .00   .00   .00   .00   .00   .00   .00   .00   .00   .00
        .00   .00   .00   .00   .00   .00   .00   .00   .00   .00   .00   .00   .00   .00   .00   .00   .00   .00   .00   .00
        .00   .00   .00   .00   .00   .00   .00   .00   .00   .00   .00   .00   .00   .00   .00
0 12    .00   .00   .00   .00   .00   .00   .00   .00   .00   .00   .00   .00   .00   .00   .00   .00   .00   .00   .00   .00
        .00   .00   .00   .00   .00   .00   .00   .00   .00   .00   .00   .00   .00   .00   .00   .00   .00   .00   .00   .00
        .00   .00   .00   .00   .00   .00   .00   .00   .00   .00   .00   .00   .00   .00   .00
0 13    .00   .00   .00   .00   .00   .00   .00   .00   .00   .00   .00   .00   .00   .00   .00   .00   .00   .00   .00   .00
        .00   .00   .00   .00   .00   .00   .00   .00   .00   .00   .00   .00   .00   .00   .00   .00   .00   .00   .00   .00
        .00   .00   .00   .00   .00   .00   .00   .00   .00   .00   .00   .00   .00   .00   .00
0 14    .00   .00   .00   .00   .00   .00   .00   .00   .00   .00   .00   .00   .00   .00   .00   .00   .00   .00   .00   .00
        .00   .00   .00   .00   .00   .00   .00   .00   .00   .00   .00   .00   .00   .00   .00   .00   .00   .00   .00   .00
        .00   .00   .00   .00   .00   .00   .00   .00   .00   .00   .00   .00   .00   .00   .00
0 15    .00   .00   .00   .00   .00   .00   .00   .00   .00   .00   .00   .00   .00   .00   .00   .00   .00   .00   .00   .00
        .00   .00   .00   .00   .00   .00   .00   .00   .00   .00   .00   .00   .00   .00   .00   .00   .00   .00   .00   .00
        .00   .00   .00   .00   .00   .00   .00   .00   .00   .00   .00   .00   .00   .00   .00
0 16    .00   .00   .00   .00   .00   .00   .00   .00   .00   .00   .00   .00   .00   .00   .00   .00   .00   .00   .00   .00
        .00   .00   .00   .00   .00   .00   .00   .00   .00   .00   .00   .00   .00   .00   .00   .00   .00   .00   .00   .00
        .00   .00   .00   .00   .00   .00   .00   .00   .00   .00   .00   .00   .00   .00   .00
0 17    .00   .00   .00   .00   .00   .00   .00   .00   .00   .00   .00   .00   .00   .00   .00   .00   .00   .00   .00   .00
        .00   .00   .00   .00   .00   .00   .00   .00   .00   .00   .00   .00   .00   .00   .00   .00   .00   .00   .00   .00
        .00   .00   .00   .00   .00   .00   .00   .00   .00   .00   .00   .00   .00   .00   .00
0 18    .00   .00   .00   .00   .00   .00   .00   .00   .00   .00   .00   .00   .00   .00   .00   .00   .00   .00   .00   .00
        .00   .00   .00   .00   .00   .00   .00   .00   .00   .00   .00   .00   .00   .00   .00   .00   .00   .00   .00   .00
        .00   .00   .00   .00   .00   .00   .00   .00   .00   .00   .00   .00   .00   .00   .00
0 19    .00   .00   .00   .00   .00   .00   .00   .00   .00   .00   .00   .00   .00   .00   .00   .00   .00   .00   .00   .00
        .00   .00   .00   .00   .00   .00   .00   .00   .00   .00   .00   .00   .00   .00   .00   .00   .00   .00   .00   .00
        .00   .00   .00   .00   .00   .00   .00   .00   .00   .00   .00   .00   .00   .00   .00
0 20    .00   .00   .00   .00   .00   .00   .00   .00   .00   .00   .00   .00   .00   .00   .00   .00   .00   .00   .00   .00
        .00   .00   .00   .00   .00   .00   .00   .00   .00   .00   .00   .00   .00   .00   .00   .00   .00   .00   .00   .00
        .00   .00   .00   .00   .00   .00   .00   .00   .00   .00   .00   .00   .00   .00   .00
0 21    .00   .00   .00   .00   .00   .00   .00   .00   .00   .00   .00   .00   .00   .00   .00   .00   .00   .00   .00   .00
        .00   .00   .00   .00   .00   .00   .00   .00   .00   .00   .00   .00   .00   .00   .00   .00   .00   .00   .00   .00
        .00   .00   .00   .00   .00   .00   .00   .00   .00   .00   .00   .00   .00   .00   .00
0 22    .00   .00   .00   .00   .00   .00   .00   .00   .00   .00   .00   .00   .00   .00   .00   .00   .00   .00   .00   .00
        .00   .00   .00   .00   .00   .00   .00   .00   .00   .00   .00   .00   .00   .00   .00   .00   .00   .00   .00   .00
        .00   .00   .00   .00   .00   .00   .00   .00   .00   .00   .00   .00   .00   .00   .00
0 23    .00   .00   .00   .00   .00   .00   .00   .00   .00   .00   .00   .00   .00   .00   .00   .00   .00   .00   .00   .00
        .00   .00   .00   .00   .00   .00   .00   .00   .00   .00   .00   .00   .00   .00   .00   .00   .00   .00   .00   .00
        .00   .00   .00   .00   .00   .00   .00   .00   .00   .00   .00   .00   .00   .00   .00
0 24    .00   .00   .00   .00   .00   .00   .00   .00   .00   .00   .00   .00   .00   .00   .00   .00   .00   .00   .00   .00
        .00   .00   .00   .00   .00   .00   .00   .00   .00   .00   .00   .00   .00   .00   .00   .00   .00   .00   .00   .00
        .00   .00   .00   .00   .00   .00   .00   .00   .00   .00   .00   .00   .00   .00   .00
0 25    .00   .00   .00   .00   .00   .00   .00   .00   .00   .00   .00   .00   .00   .00   .00   .00   .00   .00   .00   .00
        .00   .00   .00   .00   .00   .00   .00   .00   .00   .00   .00   .00   .00   .00   .00   .00   .00   .00   .00   .00
        .00   .00   .00   .00   .00   .00   .00   .00   .00   .00   .00   .00   .00   .00   .00
0 26    .00   .00   .00   .00   .00   .00   .00   .00   .00   .00   .00   .00   .00   .00   .00   .00   .00   .00   .00   .00
        .00   .00   .00   .00   .00   .00   .00   .00   .00   .00   .01   .02   .01   .00   .00   .00   .00   .00   .00   .00
        .00   .00   .00   .00   .00   .00   .00   .00   .00   .00   .00   .00   .00   .00   .00
0 27    .00   .00   .00   .00   .00   .00   .00   .00   .00   .00   .00   .00   .00   .00   .00   .00   .00   .00   .00   .00
        .00   .00   .00   .00   .00   .00   .00   .00   .00   .01   .04   .07   .04   .01   .00   .00   .00   .00   .00   .00
        .00   .00   .00   .00   .00   .00   .00   .00   .00   .00   .00   .00   .00   .00   .00
0 28    .00   .00   .00   .00   .00   .00   .00   .00   .00   .00   .00   .00   .00   .00   .00   .00   .00   .00   .00   .00
        .00   .00   .00   .00   .00   .00   .00   .00   .01   .04   .11   .27   .12   .04   .01   .00   .00   .00   .00   .00
        .00   .00   .00   .00   .00   .00   .00   .00   .00   .00   .00   .00   .00   .00   .00
0 29    .00   .00   .00   .00   .00   .00   .00   .00   .00   .00   .00   .00   .00   .00   .00   .00   .00   .00   .00   .00
        .00   .00   .00   .00   .00   .00   .00   .00   .02   .07   .27  1.02   .27   .07   .02   .00   .00   .00   .00   .00
        .00   .00   .00   .00   .00   .00   .00   .00   .00   .00   .00   .00   .00   .00   .00
0 30    .00   .00   .00   .00   .00   .00   .00   .00   .00   .00   .00   .00   .00   .00   .00   .00   .00   .00   .00   .00
        .00   .00   .00   .00   .00   .00   .00   .00   .01   .04   .12   .27   .12   .04   .01   .00   .00   .00   .00   .00
        .00   .00   .00   .00   .00   .00   .00   .00   .00   .00   .00   .00   .00   .00   .00
0 31    .00   .00   .00   .00   .00   .00   .00   .00   .00   .00   .00   .00   .00   .00   .00   .00   .00   .00   .00   .00
        .00   .00   .00   .00   .00   .00   .00   .00   .00   .01   .04   .07   .04   .01   .00   .00   .00   .00   .00   .00
        .00   .00   .00   .00   .00   .00   .00   .00   .00   .00   .00   .00   .00   .00   .00
0 32    .00   .00   .00   .00   .00   .00   .00   .00   .00   .00   .00   .00   .00   .00   .00   .00   .00   .00   .00   .00
        .00   .00   .00   .00   .00   .00   .00   .00   .00   .00   .01   .02   .01   .00   .00   .00   .00   .00   .00   .00
        .00   .00   .00   .00   .00   .00   .00   .00   .00   .00   .00   .00   .00   .00   .00
0 33    .00   .00   .00   .00   .00   .00   .00   .00   .00   .00   .00   .00   .00   .00   .00   .00   .00   .00   .00   .00
        .00   .00   .00   .00   .00   .00   .00   .00   .00   .00   .00   .00   .00   .00   .00   .00   .00   .00   .00   .00
        .00   .00   .00   .00   .00   .00   .00   .00   .00   .00   .00   .00   .00   .00   .00
0 34    .00   .00   .00   .00   .00   .00   .00   .00   .00   .00   .00   .00   .00   .00   .00   .00   .00   .00   .00   .00
        .00   .00   .00   .00   .00   .00   .00   .00   .00   .00   .00   .00   .00   .00   .00   .00   .00   .00   .00   .00
        .00   .00   .00   .00   .00   .00   .00   .00   .00   .00   .00   .00   .00   .00   .00
0 35    .00   .00   .00   .00   .00   .00   .00   .00   .00   .00   .00   .00   .00   .00   .00   .00   .00   .00   .00   .00
        .00   .00   .00   .00   .00   .00   .00   .00   .00   .00   .00   .00   .00   .00   .00   .00   .00   .00   .00   .00
        .00   .00   .00   .00   .00   .00   .00   .00   .00   .00   .00   .00   .00   .00   .00
0 36    .00   .00   .00   .00   .00   .00   .00   .00   .00   .00   .00   .00   .00   .00   .00   .00   .00   .00   .00   .00
        .00   .00   .00   .00   .00   .00   .00   .00   .00   .00   .00   .00   .00   .00   .00   .00   .00   .00   .00   .00
        .00   .00   .00   .00   .00   .00   .00   .00   .00   .00   .00   .00   .00   .00   .00
0 37    .00   .00   .00   .00   .00   .00   .00   .00   .00   .00   .00   .00   .00   .00   .00   .00   .00   .00   .00   .00
        .00   .00   .00   .00   .00   .00   .00   .00   .00   .00   .00   .00   .00   .00   .00   .00   .00   .00   .00   .00
        .00   .00   .00   .00   .00   .00   .00   .00   .00   .00   .00   .00   .00   .00   .00
0 38    .00   .00   .00   .00   .00   .00   .00   .00   .00   .00   .00   .00   .00   .00   .00   .00   .00   .00   .00   .00
        .00   .00   .00   .00   .00   .00   .00   .00   .00   .00   .00   .00   .00   .00   .00   .00   .00   .00   .00   .00
        .00   .00   .00   .00   .00   .00   .00   .00   .00   .00   .00   .00   .00   .00   .00
0 39    .00   .00   .00   .00   .00   .00   .00   .00   .00   .00   .00   .00   .00   .00   .00   .00   .00   .00   .00   .00
        .00   .00   .00   .00   .00   .00   .00   .00   .00   .00   .00   .00   .00   .00   .00   .00   .00   .00   .00   .00
        .00   .00   .00   .00   .00   .00   .00   .00   .00   .00   .00   .00   .00   .00   .00
0 40    .00   .00   .00   .00   .00   .00   .00   .00   .00   .00   .00   .00   .00   .00   .00   .00   .00   .00   .00   .00
        .00   .00   .00   .00   .00   .00   .00   .00   .00   .00   .00   .00   .00   .00   .00   .00   .00   .00   .00   .00
        .00   .00   .00   .00   .00   .00   .00   .00   .00   .00   .00   .00   .00   .00   .00
0 41    .00   .00   .00   .00   .00   .00   .00   .00   .00   .00   .00   .00   .00   .00   .00   .00   .00   .00   .00   .00
        .00   .00   .00   .00   .00   .00   .00   .00   .00   .00   .00   .00   .00   .00   .00   .00   .00   .00   .00   .00
        .00   .00   .00   .00   .00   .00   .00   .00   .00   .00   .00   .00   .00   .00   .00
0 42    .00   .00   .00   .00   .00   .00   .00   .00   .00   .00   .00   .00   .00   .00   .00   .00   .00   .00   .00   .00
        .00   .00   .00   .00   .00   .00   .00   .00   .00   .00   .00   .00   .00   .00   .00   .00   .00   .00   .00   .00
        .00   .00   .00   .00   .00   .00   .00   .00   .00   .00   .00   .00   .00   .00   .00
0 43    .00   .00   .00   .00   .00   .00   .00   .00   .00   .00   .00   .00   .00   .00   .00   .00   .00   .00   .00   .00
        .00   .00   .00   .00   .00   .00   .00   .00   .00   .00   .00   .00   .00   .00   .00   .00   .00   .00   .00   .00
        .00   .00   .00   .00   .00   .00   .00   .00   .00   .00   .00   .00   .00   .00   .00
0 44    .00   .00   .00   .00   .00   .00   .00   .00   .00   .00   .00   .00   .00   .00   .00   .00   .00   .00   .00   .00
        .00   .00   .00   .00   .00   .00   .00   .00   .00   .00   .00   .00   .00   .00   .00   .00   .00   .00   .00   .00
        .00   .00   .00   .00   .00   .00   .00   .00   .00   .00   .00   .00   .00   .00   .00
0


                              VOLUMETRIC BUDGET FOR ENTIRE MODEL AT END OF TIME STEP  4 IN STRESS PERIOD  1
                              -----------------------------------------------------------------------------
0                   CUMULATIVE VOLUMES      L**3                                     RATES FOR THIS TIME STEP      L**3/T
                    ------------------                                               ------------------------

                          IN:                                                                    IN:
                          ---                                                                    ---
                            STORAGE =    2075.9                                                    STORAGE =    .95716    
                      CONSTANT HEAD =    .00000                                              CONSTANT HEAD =    .00000    
                              WELLS =    .00000                                                      WELLS =    .00000    
                      RIVER LEAKAGE =    6.9721                                              RIVER LEAKAGE =    .58403E-02
0                          TOTAL IN =    2082.9                                                   TOTAL IN =    .96300    
0                        OUT:                                                                   OUT:
                         ----                                                                   ----
                            STORAGE =    .00000                                                    STORAGE =    .00000    
                      CONSTANT HEAD =    .00000                                              CONSTANT HEAD =    .00000    
                              WELLS =    2082.9                                                      WELLS =    .96300    
                      RIVER LEAKAGE =    .00000                                              RIVER LEAKAGE =    .00000    
0                         TOTAL OUT =    2082.9                                                  TOTAL OUT =    .96300    
0                          IN - OUT =   -.29297E-02                                               IN - OUT =   -.11921E-06
0               PERCENT DISCREPANCY =                 .00                              PERCENT DISCREPANCY =                 .00



0


          TIME SUMMARY AT END OF TIME STEP  4 IN STRESS PERIOD  1
                               SECONDS        MINUTES         HOURS          DAYS           YEARS
                           ---------------------------------------------------------------------------
      TIME STEP LENGTH         844.547        14.0758        .234596        .977485E-02    .267621E-04
    STRESS PERIOD TIME         2162.95        36.0492        .600819        .250341E-01    .685397E-04
 TOTAL SIMULATION TIME         2162.95        36.0492        .600819        .250341E-01    .685397E-04
1
     4 ITERATIONS FOR TIME STEP   5 IN STRESS PERIOD  1
0MAXIMUM HEAD CHANGE FOR EACH ITERATION:
0 HEAD CHANGE LAYER,ROW,COL HEAD CHANGE LAYER,ROW,COL HEAD CHANGE LAYER,ROW,COL HEAD CHANGE LAYER,ROW,COL HEAD CHANGE LAYER,ROW,COL
 ------------------------------------------------------------------------------------------------------------------------------------
   -.1435     (  1, 29, 32)  -.1088E-01 (  1, 30, 31)  -.3171E-03 (  1, 31, 33)   .1116E-04 (  1, 30, 31)
0
0HEAD/DRAWDOWN PRINTOUT FLAG = 1     TOTAL BUDGET PRINTOUT FLAG = 1     CELL-BY-CELL FLOW TERM FLAG = 0
0OUTPUT FLAGS FOR ALL LAYERS ARE THE SAME:
   HEAD    DRAWDOWN  HEAD  DRAWDOWN
 PRINTOUT  PRINTOUT  SAVE    SAVE
 ----------------------------------
     0         1       0       0
1                  DRAWDOWN IN LAYER  1 AT END OF TIME STEP  5 IN STRESS PERIOD  1
           -----------------------------------------------------------------------

         1     2     3     4     5     6     7     8     9    10    11    12    13    14    15    16    17    18    19    20
        21    22    23    24    25    26    27    28    29    30    31    32    33    34    35    36    37    38    39    40
        41    42    43    44    45    46    47    48    49    50    51    52    53    54    55
 ................................................................................................................................
0  1    .00   .00   .00   .00   .00   .00   .00   .00   .00   .00   .00   .00   .00   .00   .00   .00   .00   .00   .00   .00
        .00   .00   .00   .00   .00   .00   .00   .00   .00   .00   .00   .00   .00   .00   .00   .00   .00   .00   .00   .00
        .00   .00   .00   .00   .00   .00   .00   .00   .00   .00   .00   .00   .00   .00   .00
0  2    .00   .00   .00   .00   .00   .00   .00   .00   .00   .00   .00   .00   .00   .00   .00   .00   .00   .00   .00   .00
        .00   .00   .00   .00   .00   .00   .00   .00   .00   .00   .00   .00   .00   .00   .00   .00   .00   .00   .00   .00
        .00   .00   .00   .00   .00   .00   .00   .00   .00   .00   .00   .00   .00   .00   .00
0  3    .00   .00   .00   .00   .00   .00   .00   .00   .00   .00   .00   .00   .00   .00   .00   .00   .00   .00   .00   .00
        .00   .00   .00   .00   .00   .00   .00   .00   .00   .00   .00   .00   .00   .00   .00   .00   .00   .00   .00   .00
        .00   .00   .00   .00   .00   .00   .00   .00   .00   .00   .00   .00   .00   .00   .00
0  4    .00   .00   .00   .00   .00   .00   .00   .00   .00   .00   .00   .00   .00   .00   .00   .00   .00   .00   .00   .00
        .00   .00   .00   .00   .00   .00   .00   .00   .00   .00   .00   .00   .00   .00   .00   .00   .00   .00   .00   .00
        .00   .00   .00   .00   .00   .00   .00   .00   .00   .00   .00   .00   .00   .00   .00
0  5    .00   .00   .00   .00   .00   .00   .00   .00   .00   .00   .00   .00   .00   .00   .00   .00   .00   .00   .00   .00
        .00   .00   .00   .00   .00   .00   .00   .00   .00   .00   .00   .00   .00   .00   .00   .00   .00   .00   .00   .00
        .00   .00   .00   .00   .00   .00   .00   .00   .00   .00   .00   .00   .00   .00   .00
0  6    .00   .00   .00   .00   .00   .00   .00   .00   .00   .00   .00   .00   .00   .00   .00   .00   .00   .00   .00   .00
        .00   .00   .00   .00   .00   .00   .00   .00   .00   .00   .00   .00   .00   .00   .00   .00   .00   .00   .00   .00
        .00   .00   .00   .00   .00   .00   .00   .00   .00   .00   .00   .00   .00   .00   .00
0  7    .00   .00   .00   .00   .00   .00   .00   .00   .00   .00   .00   .00   .00   .00   .00   .00   .00   .00   .00   .00
        .00   .00   .00   .00   .00   .00   .00   .00   .00   .00   .00   .00   .00   .00   .00   .00   .00   .00   .00   .00
        .00   .00   .00   .00   .00   .00   .00   .00   .00   .00   .00   .00   .00   .00   .00
0  8    .00   .00   .00   .00   .00   .00   .00   .00   .00   .00   .00   .00   .00   .00   .00   .00   .00   .00   .00   .00
        .00   .00   .00   .00   .00   .00   .00   .00   .00   .00   .00   .00   .00   .00   .00   .00   .00   .00   .00   .00
        .00   .00   .00   .00   .00   .00   .00   .00   .00   .00   .00   .00   .00   .00   .00
0  9    .00   .00   .00   .00   .00   .00   .00   .00   .00   .00   .00   .00   .00   .00   .00   .00   .00   .00   .00   .00
        .00   .00   .00   .00   .00   .00   .00   .00   .00   .00   .00   .00   .00   .00   .00   .00   .00   .00   .00   .00
        .00   .00   .00   .00   .00   .00   .00   .00   .00   .00   .00   .00   .00   .00   .00
0 10    .00   .00   .00   .00   .00   .00   .00   .00   .00   .00   .00   .00   .00   .00   .00   .00   .00   .00   .00   .00
        .00   .00   .00   .00   .00   .00   .00   .00   .00   .00   .00   .00   .00   .00   .00   .00   .00   .00   .00   .00
        .00   .00   .00   .00   .00   .00   .00   .00   .00   .00   .00   .00   .00   .00   .00
0 11    .00   .00   .00   .00   .00   .00   .00   .00   .00   .00   .00   .00   .00   .00   .00   .00   .00   .00   .00   .00
        .00   .00   .00   .00   .00   .00   .00   .00   .00   .00   .00   .00   .00   .00   .00   .00   .00   .00   .00   .00
        .00   .00   .00   .00   .00   .00   .00   .00   .00   .00   .00   .00   .00   .00   .00
0 12    .00   .00   .00   .00   .00   .00   .00   .00   .00   .00   .00   .00   .00   .00   .00   .00   .00   .00   .00   .00
        .00   .00   .00   .00   .00   .00   .00   .00   .00   .00   .00   .00   .00   .00   .00   .00   .00   .00   .00   .00
        .00   .00   .00   .00   .00   .00   .00   .00   .00   .00   .00   .00   .00   .00   .00
0 13    .00   .00   .00   .00   .00   .00   .00   .00   .00   .00   .00   .00   .00   .00   .00   .00   .00   .00   .00   .00
        .00   .00   .00   .00   .00   .00   .00   .00   .00   .00   .00   .00   .00   .00   .00   .00   .00   .00   .00   .00
        .00   .00   .00   .00   .00   .00   .00   .00   .00   .00   .00   .00   .00   .00   .00
0 14    .00   .00   .00   .00   .00   .00   .00   .00   .00   .00   .00   .00   .00   .00   .00   .00   .00   .00   .00   .00
        .00   .00   .00   .00   .00   .00   .00   .00   .00   .00   .00   .00   .00   .00   .00   .00   .00   .00   .00   .00
        .00   .00   .00   .00   .00   .00   .00   .00   .00   .00   .00   .00   .00   .00   .00
0 15    .00   .00   .00   .00   .00   .00   .00   .00   .00   .00   .00   .00   .00   .00   .00   .00   .00   .00   .00   .00
        .00   .00   .00   .00   .00   .00   .00   .00   .00   .00   .00   .00   .00   .00   .00   .00   .00   .00   .00   .00
        .00   .00   .00   .00   .00   .00   .00   .00   .00   .00   .00   .00   .00   .00   .00
0 16    .00   .00   .00   .00   .00   .00   .00   .00   .00   .00   .00   .00   .00   .00   .00   .00   .00   .00   .00   .00
        .00   .00   .00   .00   .00   .00   .00   .00   .00   .00   .00   .00   .00   .00   .00   .00   .00   .00   .00   .00
        .00   .00   .00   .00   .00   .00   .00   .00   .00   .00   .00   .00   .00   .00   .00
0 17    .00   .00   .00   .00   .00   .00   .00   .00   .00   .00   .00   .00   .00   .00   .00   .00   .00   .00   .00   .00
        .00   .00   .00   .00   .00   .00   .00   .00   .00   .00   .00   .00   .00   .00   .00   .00   .00   .00   .00   .00
        .00   .00   .00   .00   .00   .00   .00   .00   .00   .00   .00   .00   .00   .00   .00
0 18    .00   .00   .00   .00   .00   .00   .00   .00   .00   .00   .00   .00   .00   .00   .00   .00   .00   .00   .00   .00
        .00   .00   .00   .00   .00   .00   .00   .00   .00   .00   .00   .00   .00   .00   .00   .00   .00   .00   .00   .00
        .00   .00   .00   .00   .00   .00   .00   .00   .00   .00   .00   .00   .00   .00   .00
0 19    .00   .00   .00   .00   .00   .00   .00   .00   .00   .00   .00   .00   .00   .00   .00   .00   .00   .00   .00   .00
        .00   .00   .00   .00   .00   .00   .00   .00   .00   .00   .00   .00   .00   .00   .00   .00   .00   .00   .00   .00
        .00   .00   .00   .00   .00   .00   .00   .00   .00   .00   .00   .00   .00   .00   .00
0 20    .00   .00   .00   .00   .00   .00   .00   .00   .00   .00   .00   .00   .00   .00   .00   .00   .00   .00   .00   .00
        .00   .00   .00   .00   .00   .00   .00   .00   .00   .00   .00   .00   .00   .00   .00   .00   .00   .00   .00   .00
        .00   .00   .00   .00   .00   .00   .00   .00   .00   .00   .00   .00   .00   .00   .00
0 21    .00   .00   .00   .00   .00   .00   .00   .00   .00   .00   .00   .00   .00   .00   .00   .00   .00   .00   .00   .00
        .00   .00   .00   .00   .00   .00   .00   .00   .00   .00   .00   .00   .00   .00   .00   .00   .00   .00   .00   .00
        .00   .00   .00   .00   .00   .00   .00   .00   .00   .00   .00   .00   .00   .00   .00
0 22    .00   .00   .00   .00   .00   .00   .00   .00   .00   .00   .00   .00   .00   .00   .00   .00   .00   .00   .00   .00
        .00   .00   .00   .00   .00   .00   .00   .00   .00   .00   .00   .00   .00   .00   .00   .00   .00   .00   .00   .00
        .00   .00   .00   .00   .00   .00   .00   .00   .00   .00   .00   .00   .00   .00   .00
0 23    .00   .00   .00   .00   .00   .00   .00   .00   .00   .00   .00   .00   .00   .00   .00   .00   .00   .00   .00   .00
        .00   .00   .00   .00   .00   .00   .00   .00   .00   .00   .00   .00   .00   .00   .00   .00   .00   .00   .00   .00
        .00   .00   .00   .00   .00   .00   .00   .00   .00   .00   .00   .00   .00   .00   .00
0 24    .00   .00   .00   .00   .00   .00   .00   .00   .00   .00   .00   .00   .00   .00   .00   .00   .00   .00   .00   .00
        .00   .00   .00   .00   .00   .00   .00   .00   .00   .00   .00   .00   .00   .00   .00   .00   .00   .00   .00   .00
        .00   .00   .00   .00   .00   .00   .00   .00   .00   .00   .00   .00   .00   .00   .00
0 25    .00   .00   .00   .00   .00   .00   .00   .00   .00   .00   .00   .00   .00   .00   .00   .00   .00   .00   .00   .00
        .00   .00   .00   .00   .00   .00   .00   .00   .00   .01   .01   .01   .01   .01   .00   .00   .00   .00   .00   .00
        .00   .00   .00   .00   .00   .00   .00   .00   .00   .00   .00   .00   .00   .00   .00
0 26    .00   .00   .00   .00   .00   .00   .00   .00   .00   .00   .00   .00   .00   .00   .00   .00   .00   .00   .00   .00
        .00   .00   .00   .00   .00   .00   .00   .00   .01   .01   .03   .04   .03   .01   .01   .00   .00   .00   .00   .00
        .00   .00   .00   .00   .00   .00   .00   .00   .00   .00   .00   .00   .00   .00   .00
0 27    .00   .00   .00   .00   .00   .00   .00   .00   .00   .00   .00   .00   .00   .00   .00   .00   .00   .00   .00   .00
        .00   .00   .00   .00   .00   .00   .00   .00   .01   .03   .07   .11   .07   .03   .01   .00   .00   .00   .00   .00
        .00   .00   .00   .00   .00   .00   .00   .00   .00   .00   .00   .00   .00   .00   .00
0 28    .00   .00   .00   .00   .00   .00   .00   .00   .00   .00   .00   .00   .00   .00   .00   .00   .00   .00   .00   .00
        .00   .00   .00   .00   .00   .00   .00   .01   .03   .07   .19   .37   .19   .07   .03   .01   .00   .00   .00   .00
        .00   .00   .00   .00   .00   .00   .00   .00   .00   .00   .00   .00   .00   .00   .00
0 29    .00   .00   .00   .00   .00   .00   .00   .00   .00   .00   .00   .00   .00   .00   .00   .00   .00   .00   .00   .00
        .00   .00   .00   .00   .00   .00   .00   .01   .04   .12   .37  1.18   .37   .12   .04   .01   .00   .00   .00   .00
        .00   .00   .00   .00   .00   .00   .00   .00   .00   .00   .00   .00   .00   .00   .00
0 30    .00   .00   .00   .00   .00   .00   .00   .00   .00   .00   .00   .00   .00   .00   .00   .00   .00   .00   .00   .00
        .00   .00   .00   .00   .00   .00   .00   .01   .03   .07   .19   .37   .19   .07   .03   .01   .00   .00   .00   .00
        .00   .00   .00   .00   .00   .00   .00   .00   .00   .00   .00   .00   .00   .00   .00
0 31    .00   .00   .00   .00   .00   .00   .00   .00   .00   .00   .00   .00   .00   .00   .00   .00   .00   .00   .00   .00
        .00   .00   .00   .00   .00   .00   .00   .01   .01   .04   .07   .12   .07   .04   .01   .01   .00   .00   .00   .00
        .00   .00   .00   .00   .00   .00   .00   .00   .00   .00   .00   .00   .00   .00   .00
0 32    .00   .00   .00   .00   .00   .00   .00   .00   .00   .00   .00   .00   .00   .00   .00   .00   .00   .00   .00   .00
        .00   .00   .00   .00   .00   .00   .00   .00   .01   .01   .03   .04   .03   .01   .01   .00   .00   .00   .00   .00
        .00   .00   .00   .00   .00   .00   .00   .00   .00   .00   .00   .00   .00   .00   .00
0 33    .00   .00   .00   .00   .00   .00   .00   .00   .00   .00   .00   .00   .00   .00   .00   .00   .00   .00   .00   .00
        .00   .00   .00   .00   .00   .00   .00   .00   .00   .01   .01   .01   .01   .01   .00   .00   .00   .00   .00   .00
        .00   .00   .00   .00   .00   .00   .00   .00   .00   .00   .00   .00   .00   .00   .00
0 34    .00   .00   .00   .00   .00   .00   .00   .00   .00   .00   .00   .00   .00   .00   .00   .00   .00   .00   .00   .00
        .00   .00   .00   .00   .00   .00   .00   .00   .00   .00   .00   .00   .00   .00   .00   .00   .00   .00   .00   .00
        .00   .00   .00   .00   .00   .00   .00   .00   .00   .00   .00   .00   .00   .00   .00
0 35    .00   .00   .00   .00   .00   .00   .00   .00   .00   .00   .00   .00   .00   .00   .00   .00   .00   .00   .00   .00
        .00   .00   .00   .00   .00   .00   .00   .00   .00   .00   .00   .00   .00   .00   .00   .00   .00   .00   .00   .00
        .00   .00   .00   .00   .00   .00   .00   .00   .00   .00   .00   .00   .00   .00   .00
0 36    .00   .00   .00   .00   .00   .00   .00   .00   .00   .00   .00   .00   .00   .00   .00   .00   .00   .00   .00   .00
        .00   .00   .00   .00   .00   .00   .00   .00   .00   .00   .00   .00   .00   .00   .00   .00   .00   .00   .00   .00
        .00   .00   .00   .00   .00   .00   .00   .00   .00   .00   .00   .00   .00   .00   .00
0 37    .00   .00   .00   .00   .00   .00   .00   .00   .00   .00   .00   .00   .00   .00   .00   .00   .00   .00   .00   .00
        .00   .00   .00   .00   .00   .00   .00   .00   .00   .00   .00   .00   .00   .00   .00   .00   .00   .00   .00   .00
        .00   .00   .00   .00   .00   .00   .00   .00   .00   .00   .00   .00   .00   .00   .00
0 38    .00   .00   .00   .00   .00   .00   .00   .00   .00   .00   .00   .00   .00   .00   .00   .00   .00   .00   .00   .00
        .00   .00   .00   .00   .00   .00   .00   .00   .00   .00   .00   .00   .00   .00   .00   .00   .00   .00   .00   .00
        .00   .00   .00   .00   .00   .00   .00   .00   .00   .00   .00   .00   .00   .00   .00
0 39    .00   .00   .00   .00   .00   .00   .00   .00   .00   .00   .00   .00   .00   .00   .00   .00   .00   .00   .00   .00
        .00   .00   .00   .00   .00   .00   .00   .00   .00   .00   .00   .00   .00   .00   .00   .00   .00   .00   .00   .00
        .00   .00   .00   .00   .00   .00   .00   .00   .00   .00   .00   .00   .00   .00   .00
0 40    .00   .00   .00   .00   .00   .00   .00   .00   .00   .00   .00   .00   .00   .00   .00   .00   .00   .00   .00   .00
        .00   .00   .00   .00   .00   .00   .00   .00   .00   .00   .00   .00   .00   .00   .00   .00   .00   .00   .00   .00
        .00   .00   .00   .00   .00   .00   .00   .00   .00   .00   .00   .00   .00   .00   .00
0 41    .00   .00   .00   .00   .00   .00   .00   .00   .00   .00   .00   .00   .00   .00   .00   .00   .00   .00   .00   .00
        .00   .00   .00   .00   .00   .00   .00   .00   .00   .00   .00   .00   .00   .00   .00   .00   .00   .00   .00   .00
        .00   .00   .00   .00   .00   .00   .00   .00   .00   .00   .00   .00   .00   .00   .00
0 42    .00   .00   .00   .00   .00   .00   .00   .00   .00   .00   .00   .00   .00   .00   .00   .00   .00   .00   .00   .00
        .00   .00   .00   .00   .00   .00   .00   .00   .00   .00   .00   .00   .00   .00   .00   .00   .00   .00   .00   .00
        .00   .00   .00   .00   .00   .00   .00   .00   .00   .00   .00   .00   .00   .00   .00
0 43    .00   .00   .00   .00   .00   .00   .00   .00   .00   .00   .00   .00   .00   .00   .00   .00   .00   .00   .00   .00
        .00   .00   .00   .00   .00   .00   .00   .00   .00   .00   .00   .00   .00   .00   .00   .00   .00   .00   .00   .00
        .00   .00   .00   .00   .00   .00   .00   .00   .00   .00   .00   .00   .00   .00   .00
0 44    .00   .00   .00   .00   .00   .00   .00   .00   .00   .00   .00   .00   .00   .00   .00   .00   .00   .00   .00   .00
        .00   .00   .00   .00   .00   .00   .00   .00   .00   .00   .00   .00   .00   .00   .00   .00   .00   .00   .00   .00
        .00   .00   .00   .00   .00   .00   .00   .00   .00   .00   .00   .00   .00   .00   .00
0


                              VOLUMETRIC BUDGET FOR ENTIRE MODEL AT END OF TIME STEP  5 IN STRESS PERIOD  1
                              -----------------------------------------------------------------------------
0                   CUMULATIVE VOLUMES      L**3                                     RATES FOR THIS TIME STEP      L**3/T
                    ------------------                                               ------------------------

                          IN:                                                                    IN:
                          ---                                                                    ---
                            STORAGE =    3213.0                                                    STORAGE =    .95215    
                      CONSTANT HEAD =    .00000                                              CONSTANT HEAD =    .00000    
                              WELLS =    .00000                                                      WELLS =    .00000    
                      RIVER LEAKAGE =    19.925                                              RIVER LEAKAGE =    .10847E-01
0                          TOTAL IN =    3232.9                                                   TOTAL IN =    .96300    
0                        OUT:                                                                   OUT:
                         ----                                                                   ----
                            STORAGE =    .00000                                                    STORAGE =    .00000    
                      CONSTANT HEAD =    .00000                                              CONSTANT HEAD =    .00000    
                              WELLS =    3232.9                                                      WELLS =    .96300    
                      RIVER LEAKAGE =    .00000                                              RIVER LEAKAGE =    .00000    
0                         TOTAL OUT =    3232.9                                                  TOTAL OUT =    .96300    
0                          IN - OUT =   -.56152E-02                                               IN - OUT =   -.21458E-05
0               PERCENT DISCREPANCY =                 .00                              PERCENT DISCREPANCY =                 .00



0


          TIME SUMMARY AT END OF TIME STEP  5 IN STRESS PERIOD  1
                               SECONDS        MINUTES         HOURS          DAYS           YEARS
                           ---------------------------------------------------------------------------
      TIME STEP LENGTH         1194.19        19.9031        .331719        .138216E-01    .378416E-04
    STRESS PERIOD TIME         3357.14        55.9523        .932539        .388558E-01    .106381E-03
 TOTAL SIMULATION TIME         3357.14        55.9523        .932539        .388558E-01    .106381E-03
1
     4 ITERATIONS FOR TIME STEP   6 IN STRESS PERIOD  1
0MAXIMUM HEAD CHANGE FOR EACH ITERATION:
0 HEAD CHANGE LAYER,ROW,COL HEAD CHANGE LAYER,ROW,COL HEAD CHANGE LAYER,ROW,COL HEAD CHANGE LAYER,ROW,COL HEAD CHANGE LAYER,ROW,COL
 ------------------------------------------------------------------------------------------------------------------------------------
   -.1142     (  1, 29, 32)  -.1655E-01 (  1, 29, 32)  -.7758E-03 (  1, 31, 33)   .2202E-04 (  1, 29, 32)
0
0HEAD/DRAWDOWN PRINTOUT FLAG = 1     TOTAL BUDGET PRINTOUT FLAG = 1     CELL-BY-CELL FLOW TERM FLAG = 0
0OUTPUT FLAGS FOR ALL LAYERS ARE THE SAME:
   HEAD    DRAWDOWN  HEAD  DRAWDOWN
 PRINTOUT  PRINTOUT  SAVE    SAVE
 ----------------------------------
     0         1       0       0
1                  DRAWDOWN IN LAYER  1 AT END OF TIME STEP  6 IN STRESS PERIOD  1
           -----------------------------------------------------------------------

         1     2     3     4     5     6     7     8     9    10    11    12    13    14    15    16    17    18    19    20
        21    22    23    24    25    26    27    28    29    30    31    32    33    34    35    36    37    38    39    40
        41    42    43    44    45    46    47    48    49    50    51    52    53    54    55
 ................................................................................................................................
0  1    .00   .00   .00   .00   .00   .00   .00   .00   .00   .00   .00   .00   .00   .00   .00   .00   .00   .00   .00   .00
        .00   .00   .00   .00   .00   .00   .00   .00   .00   .00   .00   .00   .00   .00   .00   .00   .00   .00   .00   .00
        .00   .00   .00   .00   .00   .00   .00   .00   .00   .00   .00   .00   .00   .00   .00
0  2    .00   .00   .00   .00   .00   .00   .00   .00   .00   .00   .00   .00   .00   .00   .00   .00   .00   .00   .00   .00
        .00   .00   .00   .00   .00   .00   .00   .00   .00   .00   .00   .00   .00   .00   .00   .00   .00   .00   .00   .00
        .00   .00   .00   .00   .00   .00   .00   .00   .00   .00   .00   .00   .00   .00   .00
0  3    .00   .00   .00   .00   .00   .00   .00   .00   .00   .00   .00   .00   .00   .00   .00   .00   .00   .00   .00   .00
        .00   .00   .00   .00   .00   .00   .00   .00   .00   .00   .00   .00   .00   .00   .00   .00   .00   .00   .00   .00
        .00   .00   .00   .00   .00   .00   .00   .00   .00   .00   .00   .00   .00   .00   .00
0  4    .00   .00   .00   .00   .00   .00   .00   .00   .00   .00   .00   .00   .00   .00   .00   .00   .00   .00   .00   .00
        .00   .00   .00   .00   .00   .00   .00   .00   .00   .00   .00   .00   .00   .00   .00   .00   .00   .00   .00   .00
        .00   .00   .00   .00   .00   .00   .00   .00   .00   .00   .00   .00   .00   .00   .00
0  5    .00   .00   .00   .00   .00   .00   .00   .00   .00   .00   .00   .00   .00   .00   .00   .00   .00   .00   .00   .00
        .00   .00   .00   .00   .00   .00   .00   .00   .00   .00   .00   .00   .00   .00   .00   .00   .00   .00   .00   .00
        .00   .00   .00   .00   .00   .00   .00   .00   .00   .00   .00   .00   .00   .00   .00
0  6    .00   .00   .00   .00   .00   .00   .00   .00   .00   .00   .00   .00   .00   .00   .00   .00   .00   .00   .00   .00
        .00   .00   .00   .00   .00   .00   .00   .00   .00   .00   .00   .00   .00   .00   .00   .00   .00   .00   .00   .00
        .00   .00   .00   .00   .00   .00   .00   .00   .00   .00   .00   .00   .00   .00   .00
0  7    .00   .00   .00   .00   .00   .00   .00   .00   .00   .00   .00   .00   .00   .00   .00   .00   .00   .00   .00   .00
        .00   .00   .00   .00   .00   .00   .00   .00   .00   .00   .00   .00   .00   .00   .00   .00   .00   .00   .00   .00
        .00   .00   .00   .00   .00   .00   .00   .00   .00   .00   .00   .00   .00   .00   .00
0  8    .00   .00   .00   .00   .00   .00   .00   .00   .00   .00   .00   .00   .00   .00   .00   .00   .00   .00   .00   .00
        .00   .00   .00   .00   .00   .00   .00   .00   .00   .00   .00   .00   .00   .00   .00   .00   .00   .00   .00   .00
        .00   .00   .00   .00   .00   .00   .00   .00   .00   .00   .00   .00   .00   .00   .00
0  9    .00   .00   .00   .00   .00   .00   .00   .00   .00   .00   .00   .00   .00   .00   .00   .00   .00   .00   .00   .00
        .00   .00   .00   .00   .00   .00   .00   .00   .00   .00   .00   .00   .00   .00   .00   .00   .00   .00   .00   .00
        .00   .00   .00   .00   .00   .00   .00   .00   .00   .00   .00   .00   .00   .00   .00
0 10    .00   .00   .00   .00   .00   .00   .00   .00   .00   .00   .00   .00   .00   .00   .00   .00   .00   .00   .00   .00
        .00   .00   .00   .00   .00   .00   .00   .00   .00   .00   .00   .00   .00   .00   .00   .00   .00   .00   .00   .00
        .00   .00   .00   .00   .00   .00   .00   .00   .00   .00   .00   .00   .00   .00   .00
0 11    .00   .00   .00   .00   .00   .00   .00   .00   .00   .00   .00   .00   .00   .00   .00   .00   .00   .00   .00   .00
        .00   .00   .00   .00   .00   .00   .00   .00   .00   .00   .00   .00   .00   .00   .00   .00   .00   .00   .00   .00
        .00   .00   .00   .00   .00   .00   .00   .00   .00   .00   .00   .00   .00   .00   .00
0 12    .00   .00   .00   .00   .00   .00   .00   .00   .00   .00   .00   .00   .00   .00   .00   .00   .00   .00   .00   .00
        .00   .00   .00   .00   .00   .00   .00   .00   .00   .00   .00   .00   .00   .00   .00   .00   .00   .00   .00   .00
        .00   .00   .00   .00   .00   .00   .00   .00   .00   .00   .00   .00   .00   .00   .00
0 13    .00   .00   .00   .00   .00   .00   .00   .00   .00   .00   .00   .00   .00   .00   .00   .00   .00   .00   .00   .00
        .00   .00   .00   .00   .00   .00   .00   .00   .00   .00   .00   .00   .00   .00   .00   .00   .00   .00   .00   .00
        .00   .00   .00   .00   .00   .00   .00   .00   .00   .00   .00   .00   .00   .00   .00
0 14    .00   .00   .00   .00   .00   .00   .00   .00   .00   .00   .00   .00   .00   .00   .00   .00   .00   .00   .00   .00
        .00   .00   .00   .00   .00   .00   .00   .00   .00   .00   .00   .00   .00   .00   .00   .00   .00   .00   .00   .00
        .00   .00   .00   .00   .00   .00   .00   .00   .00   .00   .00   .00   .00   .00   .00
0 15    .00   .00   .00   .00   .00   .00   .00   .00   .00   .00   .00   .00   .00   .00   .00   .00   .00   .00   .00   .00
        .00   .00   .00   .00   .00   .00   .00   .00   .00   .00   .00   .00   .00   .00   .00   .00   .00   .00   .00   .00
        .00   .00   .00   .00   .00   .00   .00   .00   .00   .00   .00   .00   .00   .00   .00
0 16    .00   .00   .00   .00   .00   .00   .00   .00   .00   .00   .00   .00   .00   .00   .00   .00   .00   .00   .00   .00
        .00   .00   .00   .00   .00   .00   .00   .00   .00   .00   .00   .00   .00   .00   .00   .00   .00   .00   .00   .00
        .00   .00   .00   .00   .00   .00   .00   .00   .00   .00   .00   .00   .00   .00   .00
0 17    .00   .00   .00   .00   .00   .00   .00   .00   .00   .00   .00   .00   .00   .00   .00   .00   .00   .00   .00   .00
        .00   .00   .00   .00   .00   .00   .00   .00   .00   .00   .00   .00   .00   .00   .00   .00   .00   .00   .00   .00
        .00   .00   .00   .00   .00   .00   .00   .00   .00   .00   .00   .00   .00   .00   .00
0 18    .00   .00   .00   .00   .00   .00   .00   .00   .00   .00   .00   .00   .00   .00   .00   .00   .00   .00   .00   .00
        .00   .00   .00   .00   .00   .00   .00   .00   .00   .00   .00   .00   .00   .00   .00   .00   .00   .00   .00   .00
        .00   .00   .00   .00   .00   .00   .00   .00   .00   .00   .00   .00   .00   .00   .00
0 19    .00   .00   .00   .00   .00   .00   .00   .00   .00   .00   .00   .00   .00   .00   .00   .00   .00   .00   .00   .00
        .00   .00   .00   .00   .00   .00   .00   .00   .00   .00   .00   .00   .00   .00   .00   .00   .00   .00   .00   .00
        .00   .00   .00   .00   .00   .00   .00   .00   .00   .00   .00   .00   .00   .00   .00
0 20    .00   .00   .00   .00   .00   .00   .00   .00   .00   .00   .00   .00   .00   .00   .00   .00   .00   .00   .00   .00
        .00   .00   .00   .00   .00   .00   .00   .00   .00   .00   .00   .00   .00   .00   .00   .00   .00   .00   .00   .00
        .00   .00   .00   .00   .00   .00   .00   .00   .00   .00   .00   .00   .00   .00   .00
0 21    .00   .00   .00   .00   .00   .00   .00   .00   .00   .00   .00   .00   .00   .00   .00   .00   .00   .00   .00   .00
        .00   .00   .00   .00   .00   .00   .00   .00   .00   .00   .00   .00   .00   .00   .00   .00   .00   .00   .00   .00
        .00   .00   .00   .00   .00   .00   .00   .00   .00   .00   .00   .00   .00   .00   .00
0 22    .00   .00   .00   .00   .00   .00   .00   .00   .00   .00   .00   .00   .00   .00   .00   .00   .00   .00   .00   .00
        .00   .00   .00   .00   .00   .00   .00   .00   .00   .00   .00   .00   .00   .00   .00   .00   .00   .00   .00   .00
        .00   .00   .00   .00   .00   .00   .00   .00   .00   .00   .00   .00   .00   .00   .00
0 23    .00   .00   .00   .00   .00   .00   .00   .00   .00   .00   .00   .00   .00   .00   .00   .00   .00   .00   .00   .00
        .00   .00   .00   .00   .00   .00   .00   .00   .00   .00   .00   .00   .00   .00   .00   .00   .00   .00   .00   .00
        .00   .00   .00   .00   .00   .00   .00   .00   .00   .00   .00   .00   .00   .00   .00
0 24    .00   .00   .00   .00   .00   .00   .00   .00   .00   .00   .00   .00   .00   .00   .00   .00   .00   .00   .00   .00
        .00   .00   .00   .00   .00   .00   .00   .00   .00   .01   .01   .01   .01   .01   .00   .00   .00   .00   .00   .00
        .00   .00   .00   .00   .00   .00   .00   .00   .00   .00   .00   .00   .00   .00   .00
0 25    .00   .00   .00   .00   .00   .00   .00   .00   .00   .00   .00   .00   .00   .00   .00   .00   .00   .00   .00   .00
        .00   .00   .00   .00   .00   .00   .00   .00   .01   .01   .02   .03   .02   .01   .01   .00   .00   .00   .00   .00
        .00   .00   .00   .00   .00   .00   .00   .00   .00   .00   .00   .00   .00   .00   .00
0 26    .00   .00   .00   .00   .00   .00   .00   .00   .00   .00   .00   .00   .00   .00   .00   .00   .00   .00   .00   .00
        .00   .00   .00   .00   .00   .00   .00   .01   .02   .03   .05   .07   .05   .03   .02   .01   .00   .00   .00   .00
        .00   .00   .00   .00   .00   .00   .00   .00   .00   .00   .00   .00   .00   .00   .00
0 27    .00   .00   .00   .00   .00   .00   .00   .00   .00   .00   .00   .00   .00   .00   .00   .00   .00   .00   .00   .00
        .00   .00   .00   .00   .00   .00   .01   .01   .03   .07   .12   .17   .12   .07   .03   .01   .01   .00   .00   .00
        .00   .00   .00   .00   .00   .00   .00   .00   .00   .00   .00   .00   .00   .00   .00
0 28    .00   .00   .00   .00   .00   .00   .00   .00   .00   .00   .00   .00   .00   .00   .00   .00   .00   .00   .00   .00
        .00   .00   .00   .00   .00   .00   .01   .02   .05   .12   .27   .47   .27   .13   .05   .02   .01   .00   .00   .00
        .00   .00   .00   .00   .00   .00   .00   .00   .00   .00   .00   .00   .00   .00   .00
0 29    .00   .00   .00   .00   .00   .00   .00   .00   .00   .00   .00   .00   .00   .00   .00   .00   .00   .00   .00   .00
        .00   .00   .00   .00   .00   .00   .01   .02   .07   .18   .47  1.31   .47   .18   .07   .02   .01   .00   .00   .00
        .00   .00   .00   .00   .00   .00   .00   .00   .00   .00   .00   .00   .00   .00   .00
0 30    .00   .00   .00   .00   .00   .00   .00   .00   .00   .00   .00   .00   .00   .00   .00   .00   .00   .00   .00   .00
        .00   .00   .00   .00   .00   .00   .01   .02   .05   .13   .27   .48   .27   .13   .05   .02   .01   .00   .00   .00
        .00   .00   .00   .00   .00   .00   .00   .00   .00   .00   .00   .00   .00   .00   .00
0 31    .00   .00   .00   .00   .00   .00   .00   .00   .00   .00   .00   .00   .00   .00   .00   .00   .00   .00   .00   .00
        .00   .00   .00   .00   .00   .00   .01   .01   .03   .07   .13   .18   .13   .07   .03   .01   .01   .00   .00   .00
        .00   .00   .00   .00   .00   .00   .00   .00   .00   .00   .00   .00   .00   .00   .00
0 32    .00   .00   .00   .00   .00   .00   .00   .00   .00   .00   .00   .00   .00   .00   .00   .00   .00   .00   .00   .00
        .00   .00   .00   .00   .00   .00   .00   .01   .02   .03   .05   .07   .05   .03   .02   .01   .00   .00   .00   .00
        .00   .00   .00   .00   .00   .00   .00   .00   .00   .00   .00   .00   .00   .00   .00
0 33    .00   .00   .00   .00   .00   .00   .00   .00   .00   .00   .00   .00   .00   .00   .00   .00   .00   .00   .00   .00
        .00   .00   .00   .00   .00   .00   .00   .00   .01   .01   .02   .03   .02   .01   .01   .00   .00   .00   .00   .00
        .00   .00   .00   .00   .00   .00   .00   .00   .00   .00   .00   .00   .00   .00   .00
0 34    .00   .00   .00   .00   .00   .00   .00   .00   .00   .00   .00   .00   .00   .00   .00   .00   .00   .00   .00   .00
        .00   .00   .00   .00   .00   .00   .00   .00   .00   .01   .01   .01   .01   .01   .00   .00   .00   .00   .00   .00
        .00   .00   .00   .00   .00   .00   .00   .00   .00   .00   .00   .00   .00   .00   .00
0 35    .00   .00   .00   .00   .00   .00   .00   .00   .00   .00   .00   .00   .00   .00   .00   .00   .00   .00   .00   .00
        .00   .00   .00   .00   .00   .00   .00   .00   .00   .00   .00   .00   .00   .00   .00   .00   .00   .00   .00   .00
        .00   .00   .00   .00   .00   .00   .00   .00   .00   .00   .00   .00   .00   .00   .00
0 36    .00   .00   .00   .00   .00   .00   .00   .00   .00   .00   .00   .00   .00   .00   .00   .00   .00   .00   .00   .00
        .00   .00   .00   .00   .00   .00   .00   .00   .00   .00   .00   .00   .00   .00   .00   .00   .00   .00   .00   .00
        .00   .00   .00   .00   .00   .00   .00   .00   .00   .00   .00   .00   .00   .00   .00
0 37    .00   .00   .00   .00   .00   .00   .00   .00   .00   .00   .00   .00   .00   .00   .00   .00   .00   .00   .00   .00
        .00   .00   .00   .00   .00   .00   .00   .00   .00   .00   .00   .00   .00   .00   .00   .00   .00   .00   .00   .00
        .00   .00   .00   .00   .00   .00   .00   .00   .00   .00   .00   .00   .00   .00   .00
0 38    .00   .00   .00   .00   .00   .00   .00   .00   .00   .00   .00   .00   .00   .00   .00   .00   .00   .00   .00   .00
        .00   .00   .00   .00   .00   .00   .00   .00   .00   .00   .00   .00   .00   .00   .00   .00   .00   .00   .00   .00
        .00   .00   .00   .00   .00   .00   .00   .00   .00   .00   .00   .00   .00   .00   .00
0 39    .00   .00   .00   .00   .00   .00   .00   .00   .00   .00   .00   .00   .00   .00   .00   .00   .00   .00   .00   .00
        .00   .00   .00   .00   .00   .00   .00   .00   .00   .00   .00   .00   .00   .00   .00   .00   .00   .00   .00   .00
        .00   .00   .00   .00   .00   .00   .00   .00   .00   .00   .00   .00   .00   .00   .00
0 40    .00   .00   .00   .00   .00   .00   .00   .00   .00   .00   .00   .00   .00   .00   .00   .00   .00   .00   .00   .00
        .00   .00   .00   .00   .00   .00   .00   .00   .00   .00   .00   .00   .00   .00   .00   .00   .00   .00   .00   .00
        .00   .00   .00   .00   .00   .00   .00   .00   .00   .00   .00   .00   .00   .00   .00
0 41    .00   .00   .00   .00   .00   .00   .00   .00   .00   .00   .00   .00   .00   .00   .00   .00   .00   .00   .00   .00
        .00   .00   .00   .00   .00   .00   .00   .00   .00   .00   .00   .00   .00   .00   .00   .00   .00   .00   .00   .00
        .00   .00   .00   .00   .00   .00   .00   .00   .00   .00   .00   .00   .00   .00   .00
0 42    .00   .00   .00   .00   .00   .00   .00   .00   .00   .00   .00   .00   .00   .00   .00   .00   .00   .00   .00   .00
        .00   .00   .00   .00   .00   .00   .00   .00   .00   .00   .00   .00   .00   .00   .00   .00   .00   .00   .00   .00
        .00   .00   .00   .00   .00   .00   .00   .00   .00   .00   .00   .00   .00   .00   .00
0 43    .00   .00   .00   .00   .00   .00   .00   .00   .00   .00   .00   .00   .00   .00   .00   .00   .00   .00   .00   .00
        .00   .00   .00   .00   .00   .00   .00   .00   .00   .00   .00   .00   .00   .00   .00   .00   .00   .00   .00   .00
        .00   .00   .00   .00   .00   .00   .00   .00   .00   .00   .00   .00   .00   .00   .00
0 44    .00   .00   .00   .00   .00   .00   .00   .00   .00   .00   .00   .00   .00   .00   .00   .00   .00   .00   .00   .00
        .00   .00   .00   .00   .00   .00   .00   .00   .00   .00   .00   .00   .00   .00   .00   .00   .00   .00   .00   .00
        .00   .00   .00   .00   .00   .00   .00   .00   .00   .00   .00   .00   .00   .00   .00
0


                              VOLUMETRIC BUDGET FOR ENTIRE MODEL AT END OF TIME STEP  6 IN STRESS PERIOD  1
                              -----------------------------------------------------------------------------
0                   CUMULATIVE VOLUMES      L**3                                     RATES FOR THIS TIME STEP      L**3/T
                    ------------------                                               ------------------------

                          IN:                                                                    IN:
                          ---                                                                    ---
                            STORAGE =    4808.8                                                    STORAGE =    .94506    
                      CONSTANT HEAD =    .00000                                              CONSTANT HEAD =    .00000    
                              WELLS =    .00000                                                      WELLS =    .00000    
                      RIVER LEAKAGE =    50.208                                              RIVER LEAKAGE =    .17934E-01
0                          TOTAL IN =    4859.0                                                   TOTAL IN =    .96300    
0                        OUT:                                                                   OUT:
                         ----                                                                   ----
                            STORAGE =    .00000                                                    STORAGE =    .00000    
                      CONSTANT HEAD =    .00000                                              CONSTANT HEAD =    .00000    
                              WELLS =    4859.0                                                      WELLS =    .96300    
                      RIVER LEAKAGE =    .00000                                              RIVER LEAKAGE =    .00000    
0                         TOTAL OUT =    4859.0                                                  TOTAL OUT =    .96300    
0                          IN - OUT =   -.10742E-01                                               IN - OUT =   -.30994E-05
0               PERCENT DISCREPANCY =                 .00                              PERCENT DISCREPANCY =                 .00



0


          TIME SUMMARY AT END OF TIME STEP  6 IN STRESS PERIOD  1
                               SECONDS        MINUTES         HOURS          DAYS           YEARS
                           ---------------------------------------------------------------------------
      TIME STEP LENGTH         1688.58        28.1431        .469051        .195438E-01    .535080E-04
    STRESS PERIOD TIME         5045.72        84.0954        1.40159        .583996E-01    .159889E-03
 TOTAL SIMULATION TIME         5045.72        84.0954        1.40159        .583996E-01    .159889E-03
1
     4 ITERATIONS FOR TIME STEP   7 IN STRESS PERIOD  1
0MAXIMUM HEAD CHANGE FOR EACH ITERATION:
0 HEAD CHANGE LAYER,ROW,COL HEAD CHANGE LAYER,ROW,COL HEAD CHANGE LAYER,ROW,COL HEAD CHANGE LAYER,ROW,COL HEAD CHANGE LAYER,ROW,COL
 ------------------------------------------------------------------------------------------------------------------------------------
   -.9225E-01 (  1, 29, 32)  -.2314E-01 (  1, 29, 32)  -.1819E-02 (  1, 30, 33)  -.5175E-04 (  1, 28, 37)
0
0HEAD/DRAWDOWN PRINTOUT FLAG = 1     TOTAL BUDGET PRINTOUT FLAG = 1     CELL-BY-CELL FLOW TERM FLAG = 0
0OUTPUT FLAGS FOR ALL LAYERS ARE THE SAME:
   HEAD    DRAWDOWN  HEAD  DRAWDOWN
 PRINTOUT  PRINTOUT  SAVE    SAVE
 ----------------------------------
     0         1       0       0
1                  DRAWDOWN IN LAYER  1 AT END OF TIME STEP  7 IN STRESS PERIOD  1
           -----------------------------------------------------------------------

         1     2     3     4     5     6     7     8     9    10    11    12    13    14    15    16    17    18    19    20
        21    22    23    24    25    26    27    28    29    30    31    32    33    34    35    36    37    38    39    40
        41    42    43    44    45    46    47    48    49    50    51    52    53    54    55
 ................................................................................................................................
0  1    .00   .00   .00   .00   .00   .00   .00   .00   .00   .00   .00   .00   .00   .00   .00   .00   .00   .00   .00   .00
        .00   .00   .00   .00   .00   .00   .00   .00   .00   .00   .00   .00   .00   .00   .00   .00   .00   .00   .00   .00
        .00   .00   .00   .00   .00   .00   .00   .00   .00   .00   .00   .00   .00   .00   .00
0  2    .00   .00   .00   .00   .00   .00   .00   .00   .00   .00   .00   .00   .00   .00   .00   .00   .00   .00   .00   .00
        .00   .00   .00   .00   .00   .00   .00   .00   .00   .00   .00   .00   .00   .00   .00   .00   .00   .00   .00   .00
        .00   .00   .00   .00   .00   .00   .00   .00   .00   .00   .00   .00   .00   .00   .00
0  3    .00   .00   .00   .00   .00   .00   .00   .00   .00   .00   .00   .00   .00   .00   .00   .00   .00   .00   .00   .00
        .00   .00   .00   .00   .00   .00   .00   .00   .00   .00   .00   .00   .00   .00   .00   .00   .00   .00   .00   .00
        .00   .00   .00   .00   .00   .00   .00   .00   .00   .00   .00   .00   .00   .00   .00
0  4    .00   .00   .00   .00   .00   .00   .00   .00   .00   .00   .00   .00   .00   .00   .00   .00   .00   .00   .00   .00
        .00   .00   .00   .00   .00   .00   .00   .00   .00   .00   .00   .00   .00   .00   .00   .00   .00   .00   .00   .00
        .00   .00   .00   .00   .00   .00   .00   .00   .00   .00   .00   .00   .00   .00   .00
0  5    .00   .00   .00   .00   .00   .00   .00   .00   .00   .00   .00   .00   .00   .00   .00   .00   .00   .00   .00   .00
        .00   .00   .00   .00   .00   .00   .00   .00   .00   .00   .00   .00   .00   .00   .00   .00   .00   .00   .00   .00
        .00   .00   .00   .00   .00   .00   .00   .00   .00   .00   .00   .00   .00   .00   .00
0  6    .00   .00   .00   .00   .00   .00   .00   .00   .00   .00   .00   .00   .00   .00   .00   .00   .00   .00   .00   .00
        .00   .00   .00   .00   .00   .00   .00   .00   .00   .00   .00   .00   .00   .00   .00   .00   .00   .00   .00   .00
        .00   .00   .00   .00   .00   .00   .00   .00   .00   .00   .00   .00   .00   .00   .00
0  7    .00   .00   .00   .00   .00   .00   .00   .00   .00   .00   .00   .00   .00   .00   .00   .00   .00   .00   .00   .00
        .00   .00   .00   .00   .00   .00   .00   .00   .00   .00   .00   .00   .00   .00   .00   .00   .00   .00   .00   .00
        .00   .00   .00   .00   .00   .00   .00   .00   .00   .00   .00   .00   .00   .00   .00
0  8    .00   .00   .00   .00   .00   .00   .00   .00   .00   .00   .00   .00   .00   .00   .00   .00   .00   .00   .00   .00
        .00   .00   .00   .00   .00   .00   .00   .00   .00   .00   .00   .00   .00   .00   .00   .00   .00   .00   .00   .00
        .00   .00   .00   .00   .00   .00   .00   .00   .00   .00   .00   .00   .00   .00   .00
0  9    .00   .00   .00   .00   .00   .00   .00   .00   .00   .00   .00   .00   .00   .00   .00   .00   .00   .00   .00   .00
        .00   .00   .00   .00   .00   .00   .00   .00   .00   .00   .00   .00   .00   .00   .00   .00   .00   .00   .00   .00
        .00   .00   .00   .00   .00   .00   .00   .00   .00   .00   .00   .00   .00   .00   .00
0 10    .00   .00   .00   .00   .00   .00   .00   .00   .00   .00   .00   .00   .00   .00   .00   .00   .00   .00   .00   .00
        .00   .00   .00   .00   .00   .00   .00   .00   .00   .00   .00   .00   .00   .00   .00   .00   .00   .00   .00   .00
        .00   .00   .00   .00   .00   .00   .00   .00   .00   .00   .00   .00   .00   .00   .00
0 11    .00   .00   .00   .00   .00   .00   .00   .00   .00   .00   .00   .00   .00   .00   .00   .00   .00   .00   .00   .00
        .00   .00   .00   .00   .00   .00   .00   .00   .00   .00   .00   .00   .00   .00   .00   .00   .00   .00   .00   .00
        .00   .00   .00   .00   .00   .00   .00   .00   .00   .00   .00   .00   .00   .00   .00
0 12    .00   .00   .00   .00   .00   .00   .00   .00   .00   .00   .00   .00   .00   .00   .00   .00   .00   .00   .00   .00
        .00   .00   .00   .00   .00   .00   .00   .00   .00   .00   .00   .00   .00   .00   .00   .00   .00   .00   .00   .00
        .00   .00   .00   .00   .00   .00   .00   .00   .00   .00   .00   .00   .00   .00   .00
0 13    .00   .00   .00   .00   .00   .00   .00   .00   .00   .00   .00   .00   .00   .00   .00   .00   .00   .00   .00   .00
        .00   .00   .00   .00   .00   .00   .00   .00   .00   .00   .00   .00   .00   .00   .00   .00   .00   .00   .00   .00
        .00   .00   .00   .00   .00   .00   .00   .00   .00   .00   .00   .00   .00   .00   .00
0 14    .00   .00   .00   .00   .00   .00   .00   .00   .00   .00   .00   .00   .00   .00   .00   .00   .00   .00   .00   .00
        .00   .00   .00   .00   .00   .00   .00   .00   .00   .00   .00   .00   .00   .00   .00   .00   .00   .00   .00   .00
        .00   .00   .00   .00   .00   .00   .00   .00   .00   .00   .00   .00   .00   .00   .00
0 15    .00   .00   .00   .00   .00   .00   .00   .00   .00   .00   .00   .00   .00   .00   .00   .00   .00   .00   .00   .00
        .00   .00   .00   .00   .00   .00   .00   .00   .00   .00   .00   .00   .00   .00   .00   .00   .00   .00   .00   .00
        .00   .00   .00   .00   .00   .00   .00   .00   .00   .00   .00   .00   .00   .00   .00
0 16    .00   .00   .00   .00   .00   .00   .00   .00   .00   .00   .00   .00   .00   .00   .00   .00   .00   .00   .00   .00
        .00   .00   .00   .00   .00   .00   .00   .00   .00   .00   .00   .00   .00   .00   .00   .00   .00   .00   .00   .00
        .00   .00   .00   .00   .00   .00   .00   .00   .00   .00   .00   .00   .00   .00   .00
0 17    .00   .00   .00   .00   .00   .00   .00   .00   .00   .00   .00   .00   .00   .00   .00   .00   .00   .00   .00   .00
        .00   .00   .00   .00   .00   .00   .00   .00   .00   .00   .00   .00   .00   .00   .00   .00   .00   .00   .00   .00
        .00   .00   .00   .00   .00   .00   .00   .00   .00   .00   .00   .00   .00   .00   .00
0 18    .00   .00   .00   .00   .00   .00   .00   .00   .00   .00   .00   .00   .00   .00   .00   .00   .00   .00   .00   .00
        .00   .00   .00   .00   .00   .00   .00   .00   .00   .00   .00   .00   .00   .00   .00   .00   .00   .00   .00   .00
        .00   .00   .00   .00   .00   .00   .00   .00   .00   .00   .00   .00   .00   .00   .00
0 19    .00   .00   .00   .00   .00   .00   .00   .00   .00   .00   .00   .00   .00   .00   .00   .00   .00   .00   .00   .00
        .00   .00   .00   .00   .00   .00   .00   .00   .00   .00   .00   .00   .00   .00   .00   .00   .00   .00   .00   .00
        .00   .00   .00   .00   .00   .00   .00   .00   .00   .00   .00   .00   .00   .00   .00
0 20    .00   .00   .00   .00   .00   .00   .00   .00   .00   .00   .00   .00   .00   .00   .00   .00   .00   .00   .00   .00
        .00   .00   .00   .00   .00   .00   .00   .00   .00   .00   .00   .00   .00   .00   .00   .00   .00   .00   .00   .00
        .00   .00   .00   .00   .00   .00   .00   .00   .00   .00   .00   .00   .00   .00   .00
0 21    .00   .00   .00   .00   .00   .00   .00   .00   .00   .00   .00   .00   .00   .00   .00   .00   .00   .00   .00   .00
        .00   .00   .00   .00   .00   .00   .00   .00   .00   .00   .00   .00   .00   .00   .00   .00   .00   .00   .00   .00
        .00   .00   .00   .00   .00   .00   .00   .00   .00   .00   .00   .00   .00   .00   .00
0 22    .00   .00   .00   .00   .00   .00   .00   .00   .00   .00   .00   .00   .00   .00   .00   .00   .00   .00   .00   .00
        .00   .00   .00   .00   .00   .00   .00   .00   .00   .00   .00   .00   .00   .00   .00   .00   .00   .00   .00   .00
        .00   .00   .00   .00   .00   .00   .00   .00   .00   .00   .00   .00   .00   .00   .00
0 23    .00   .00   .00   .00   .00   .00   .00   .00   .00   .00   .00   .00   .00   .00   .00   .00   .00   .00   .00   .00
        .00   .00   .00   .00   .00   .00   .00   .00   .00   .00   .01   .01   .01   .00   .00   .00   .00   .00   .00   .00
        .00   .00   .00   .00   .00   .00   .00   .00   .00   .00   .00   .00   .00   .00   .00
0 24    .00   .00   .00   .00   .00   .00   .00   .00   .00   .00   .00   .00   .00   .00   .00   .00   .00   .00   .00   .00
        .00   .00   .00   .00   .00   .00   .00   .00   .01   .01   .02   .02   .02   .01   .01   .01   .00   .00   .00   .00
        .00   .00   .00   .00   .00   .00   .00   .00   .00   .00   .00   .00   .00   .00   .00
0 25    .00   .00   .00   .00   .00   .00   .00   .00   .00   .00   .00   .00   .00   .00   .00   .00   .00   .00   .00   .00
        .00   .00   .00   .00   .00   .00   .01   .01   .02   .03   .05   .05   .05   .03   .02   .01   .01   .00   .00   .00
        .00   .00   .00   .00   .00   .00   .00   .00   .00   .00   .00   .00   .00   .00   .00
0 26    .00   .00   .00   .00   .00   .00   .00   .00   .00   .00   .00   .00   .00   .00   .00   .00   .00   .00   .00   .00
        .00   .00   .00   .00   .00   .00   .01   .02   .04   .06   .09   .11   .09   .06   .04   .02   .01   .01   .00   .00
        .00   .00   .00   .00   .00   .00   .00   .00   .00   .00   .00   .00   .00   .00   .00
0 27    .00   .00   .00   .00   .00   .00   .00   .00   .00   .00   .00   .00   .00   .00   .00   .00   .00   .00   .00   .00
        .00   .00   .00   .00   .00   .01   .01   .03   .06   .11   .19   .24   .18   .11   .06   .03   .01   .01   .00   .00
        .00   .00   .00   .00   .00   .00   .00   .00   .00   .00   .00   .00   .00   .00   .00
0 28    .00   .00   .00   .00   .00   .00   .00   .00   .00   .00   .00   .00   .00   .00   .00   .00   .00   .00   .00   .00
        .00   .00   .00   .00   .00   .01   .02   .04   .09   .18   .35   .57   .36   .19   .09   .04   .02   .01   .00   .00
        .00   .00   .00   .00   .00   .00   .00   .00   .00   .00   .00   .00   .00   .00   .00
0 29    .00   .00   .00   .00   .00   .00   .00   .00   .00   .00   .00   .00   .00   .00   .00   .00   .00   .00   .00   .00
        .00   .00   .00   .00   .00   .01   .02   .05   .11   .25   .57  1.43   .58   .25   .11   .05   .02   .01   .00   .00
        .00   .00   .00   .00   .00   .00   .00   .00   .00   .00   .00   .00   .00   .00   .00
0 30    .00   .00   .00   .00   .00   .00   .00   .00   .00   .00   .00   .00   .00   .00   .00   .00   .00   .00   .00   .00
        .00   .00   .00   .00   .00   .01   .02   .04   .09   .19   .36   .58   .36   .19   .09   .04   .02   .01   .00   .00
        .00   .00   .00   .00   .00   .00   .00   .00   .00   .00   .00   .00   .00   .00   .00
0 31    .00   .00   .00   .00   .00   .00   .00   .00   .00   .00   .00   .00   .00   .00   .00   .00   .00   .00   .00   .00
        .00   .00   .00   .00   .00   .01   .01   .03   .06   .12   .19   .25   .19   .12   .06   .03   .01   .01   .00   .00
        .00   .00   .00   .00   .00   .00   .00   .00   .00   .00   .00   .00   .00   .00   .00
0 32    .00   .00   .00   .00   .00   .00   .00   .00   .00   .00   .00   .00   .00   .00   .00   .00   .00   .00   .00   .00
        .00   .00   .00   .00   .00   .00   .01   .02   .04   .06   .09   .11   .09   .06   .04   .02   .01   .00   .00   .00
        .00   .00   .00   .00   .00   .00   .00   .00   .00   .00   .00   .00   .00   .00   .00
0 33    .00   .00   .00   .00   .00   .00   .00   .00   .00   .00   .00   .00   .00   .00   .00   .00   .00   .00   .00   .00
        .00   .00   .00   .00   .00   .00   .01   .01   .02   .03   .04   .05   .04   .03   .02   .01   .01   .00   .00   .00
        .00   .00   .00   .00   .00   .00   .00   .00   .00   .00   .00   .00   .00   .00   .00
0 34    .00   .00   .00   .00   .00   .00   .00   .00   .00   .00   .00   .00   .00   .00   .00   .00   .00   .00   .00   .00
        .00   .00   .00   .00   .00   .00   .00   .01   .01   .01   .02   .02   .02   .01   .01   .01   .00   .00   .00   .00
        .00   .00   .00   .00   .00   .00   .00   .00   .00   .00   .00   .00   .00   .00   .00
0 35    .00   .00   .00   .00   .00   .00   .00   .00   .00   .00   .00   .00   .00   .00   .00   .00   .00   .00   .00   .00
        .00   .00   .00   .00   .00   .00   .00   .00   .00   .01   .01   .01   .01   .01   .00   .00   .00   .00   .00   .00
        .00   .00   .00   .00   .00   .00   .00   .00   .00   .00   .00   .00   .00   .00   .00
0 36    .00   .00   .00   .00   .00   .00   .00   .00   .00   .00   .00   .00   .00   .00   .00   .00   .00   .00   .00   .00
        .00   .00   .00   .00   .00   .00   .00   .00   .00   .00   .00   .00   .00   .00   .00   .00   .00   .00   .00   .00
        .00   .00   .00   .00   .00   .00   .00   .00   .00   .00   .00   .00   .00   .00   .00
0 37    .00   .00   .00   .00   .00   .00   .00   .00   .00   .00   .00   .00   .00   .00   .00   .00   .00   .00   .00   .00
        .00   .00   .00   .00   .00   .00   .00   .00   .00   .00   .00   .00   .00   .00   .00   .00   .00   .00   .00   .00
        .00   .00   .00   .00   .00   .00   .00   .00   .00   .00   .00   .00   .00   .00   .00
0 38    .00   .00   .00   .00   .00   .00   .00   .00   .00   .00   .00   .00   .00   .00   .00   .00   .00   .00   .00   .00
        .00   .00   .00   .00   .00   .00   .00   .00   .00   .00   .00   .00   .00   .00   .00   .00   .00   .00   .00   .00
        .00   .00   .00   .00   .00   .00   .00   .00   .00   .00   .00   .00   .00   .00   .00
0 39    .00   .00   .00   .00   .00   .00   .00   .00   .00   .00   .00   .00   .00   .00   .00   .00   .00   .00   .00   .00
        .00   .00   .00   .00   .00   .00   .00   .00   .00   .00   .00   .00   .00   .00   .00   .00   .00   .00   .00   .00
        .00   .00   .00   .00   .00   .00   .00   .00   .00   .00   .00   .00   .00   .00   .00
0 40    .00   .00   .00   .00   .00   .00   .00   .00   .00   .00   .00   .00   .00   .00   .00   .00   .00   .00   .00   .00
        .00   .00   .00   .00   .00   .00   .00   .00   .00   .00   .00   .00   .00   .00   .00   .00   .00   .00   .00   .00
        .00   .00   .00   .00   .00   .00   .00   .00   .00   .00   .00   .00   .00   .00   .00
0 41    .00   .00   .00   .00   .00   .00   .00   .00   .00   .00   .00   .00   .00   .00   .00   .00   .00   .00   .00   .00
        .00   .00   .00   .00   .00   .00   .00   .00   .00   .00   .00   .00   .00   .00   .00   .00   .00   .00   .00   .00
        .00   .00   .00   .00   .00   .00   .00   .00   .00   .00   .00   .00   .00   .00   .00
0 42    .00   .00   .00   .00   .00   .00   .00   .00   .00   .00   .00   .00   .00   .00   .00   .00   .00   .00   .00   .00
        .00   .00   .00   .00   .00   .00   .00   .00   .00   .00   .00   .00   .00   .00   .00   .00   .00   .00   .00   .00
        .00   .00   .00   .00   .00   .00   .00   .00   .00   .00   .00   .00   .00   .00   .00
0 43    .00   .00   .00   .00   .00   .00   .00   .00   .00   .00   .00   .00   .00   .00   .00   .00   .00   .00   .00   .00
        .00   .00   .00   .00   .00   .00   .00   .00   .00   .00   .00   .00   .00   .00   .00   .00   .00   .00   .00   .00
        .00   .00   .00   .00   .00   .00   .00   .00   .00   .00   .00   .00   .00   .00   .00
0 44    .00   .00   .00   .00   .00   .00   .00   .00   .00   .00   .00   .00   .00   .00   .00   .00   .00   .00   .00   .00
        .00   .00   .00   .00   .00   .00   .00   .00   .00   .00   .00   .00   .00   .00   .00   .00   .00   .00   .00   .00
        .00   .00   .00   .00   .00   .00   .00   .00   .00   .00   .00   .00   .00   .00   .00
0


                              VOLUMETRIC BUDGET FOR ENTIRE MODEL AT END OF TIME STEP  7 IN STRESS PERIOD  1
                              -----------------------------------------------------------------------------
0                   CUMULATIVE VOLUMES      L**3                                     RATES FOR THIS TIME STEP      L**3/T
                    ------------------                                               ------------------------

                          IN:                                                                    IN:
                          ---                                                                    ---
                            STORAGE =    7043.0                                                    STORAGE =    .93571    
                      CONSTANT HEAD =    .00000                                              CONSTANT HEAD =    .00000    
                              WELLS =    .00000                                                      WELLS =    .00000    
                      RIVER LEAKAGE =    115.35                                              RIVER LEAKAGE =    .27281E-01
0                          TOTAL IN =    7158.3                                                   TOTAL IN =    .96299    
0                        OUT:                                                                   OUT:
                         ----                                                                   ----
                            STORAGE =    .00000                                                    STORAGE =    .00000    
                      CONSTANT HEAD =    .00000                                              CONSTANT HEAD =    .00000    
                              WELLS =    7158.3                                                      WELLS =    .96300    
                      RIVER LEAKAGE =    .00000                                              RIVER LEAKAGE =    .00000    
0                         TOTAL OUT =    7158.3                                                  TOTAL OUT =    .96300    
0                          IN - OUT =   -.37109E-01                                               IN - OUT =   -.11027E-04
0               PERCENT DISCREPANCY =                 .00                              PERCENT DISCREPANCY =                -.00



0


          TIME SUMMARY AT END OF TIME STEP  7 IN STRESS PERIOD  1
                               SECONDS        MINUTES         HOURS          DAYS           YEARS
                           ---------------------------------------------------------------------------
      TIME STEP LENGTH         2387.66        39.7943        .663238        .276349E-01    .756603E-04
    STRESS PERIOD TIME         7433.38        123.890        2.06483        .860345E-01    .235550E-03
 TOTAL SIMULATION TIME         7433.38        123.890        2.06483        .860345E-01    .235550E-03
1
     5 ITERATIONS FOR TIME STEP   8 IN STRESS PERIOD  1
0MAXIMUM HEAD CHANGE FOR EACH ITERATION:
0 HEAD CHANGE LAYER,ROW,COL HEAD CHANGE LAYER,ROW,COL HEAD CHANGE LAYER,ROW,COL HEAD CHANGE LAYER,ROW,COL HEAD CHANGE LAYER,ROW,COL
 ------------------------------------------------------------------------------------------------------------------------------------
   -.7479E-01 (  1, 29, 32)  -.2954E-01 (  1, 29, 32)  -.3858E-02 (  1, 29, 32)  -.1363E-03 (  1, 26, 36)  -.1749E-04 (  1, 25, 37)
0
0HEAD/DRAWDOWN PRINTOUT FLAG = 1     TOTAL BUDGET PRINTOUT FLAG = 1     CELL-BY-CELL FLOW TERM FLAG = 0
0OUTPUT FLAGS FOR ALL LAYERS ARE THE SAME:
   HEAD    DRAWDOWN  HEAD  DRAWDOWN
 PRINTOUT  PRINTOUT  SAVE    SAVE
 ----------------------------------
     0         1       0       0
1                  DRAWDOWN IN LAYER  1 AT END OF TIME STEP  8 IN STRESS PERIOD  1
           -----------------------------------------------------------------------

         1     2     3     4     5     6     7     8     9    10    11    12    13    14    15    16    17    18    19    20
        21    22    23    24    25    26    27    28    29    30    31    32    33    34    35    36    37    38    39    40
        41    42    43    44    45    46    47    48    49    50    51    52    53    54    55
 ................................................................................................................................
0  1    .00   .00   .00   .00   .00   .00   .00   .00   .00   .00   .00   .00   .00   .00   .00   .00   .00   .00   .00   .00
        .00   .00   .00   .00   .00   .00   .00   .00   .00   .00   .00   .00   .00   .00   .00   .00   .00   .00   .00   .00
        .00   .00   .00   .00   .00   .00   .00   .00   .00   .00   .00   .00   .00   .00   .00
0  2    .00   .00   .00   .00   .00   .00   .00   .00   .00   .00   .00   .00   .00   .00   .00   .00   .00   .00   .00   .00
        .00   .00   .00   .00   .00   .00   .00   .00   .00   .00   .00   .00   .00   .00   .00   .00   .00   .00   .00   .00
        .00   .00   .00   .00   .00   .00   .00   .00   .00   .00   .00   .00   .00   .00   .00
0  3    .00   .00   .00   .00   .00   .00   .00   .00   .00   .00   .00   .00   .00   .00   .00   .00   .00   .00   .00   .00
        .00   .00   .00   .00   .00   .00   .00   .00   .00   .00   .00   .00   .00   .00   .00   .00   .00   .00   .00   .00
        .00   .00   .00   .00   .00   .00   .00   .00   .00   .00   .00   .00   .00   .00   .00
0  4    .00   .00   .00   .00   .00   .00   .00   .00   .00   .00   .00   .00   .00   .00   .00   .00   .00   .00   .00   .00
        .00   .00   .00   .00   .00   .00   .00   .00   .00   .00   .00   .00   .00   .00   .00   .00   .00   .00   .00   .00
        .00   .00   .00   .00   .00   .00   .00   .00   .00   .00   .00   .00   .00   .00   .00
0  5    .00   .00   .00   .00   .00   .00   .00   .00   .00   .00   .00   .00   .00   .00   .00   .00   .00   .00   .00   .00
        .00   .00   .00   .00   .00   .00   .00   .00   .00   .00   .00   .00   .00   .00   .00   .00   .00   .00   .00   .00
        .00   .00   .00   .00   .00   .00   .00   .00   .00   .00   .00   .00   .00   .00   .00
0  6    .00   .00   .00   .00   .00   .00   .00   .00   .00   .00   .00   .00   .00   .00   .00   .00   .00   .00   .00   .00
        .00   .00   .00   .00   .00   .00   .00   .00   .00   .00   .00   .00   .00   .00   .00   .00   .00   .00   .00   .00
        .00   .00   .00   .00   .00   .00   .00   .00   .00   .00   .00   .00   .00   .00   .00
0  7    .00   .00   .00   .00   .00   .00   .00   .00   .00   .00   .00   .00   .00   .00   .00   .00   .00   .00   .00   .00
        .00   .00   .00   .00   .00   .00   .00   .00   .00   .00   .00   .00   .00   .00   .00   .00   .00   .00   .00   .00
        .00   .00   .00   .00   .00   .00   .00   .00   .00   .00   .00   .00   .00   .00   .00
0  8    .00   .00   .00   .00   .00   .00   .00   .00   .00   .00   .00   .00   .00   .00   .00   .00   .00   .00   .00   .00
        .00   .00   .00   .00   .00   .00   .00   .00   .00   .00   .00   .00   .00   .00   .00   .00   .00   .00   .00   .00
        .00   .00   .00   .00   .00   .00   .00   .00   .00   .00   .00   .00   .00   .00   .00
0  9    .00   .00   .00   .00   .00   .00   .00   .00   .00   .00   .00   .00   .00   .00   .00   .00   .00   .00   .00   .00
        .00   .00   .00   .00   .00   .00   .00   .00   .00   .00   .00   .00   .00   .00   .00   .00   .00   .00   .00   .00
        .00   .00   .00   .00   .00   .00   .00   .00   .00   .00   .00   .00   .00   .00   .00
0 10    .00   .00   .00   .00   .00   .00   .00   .00   .00   .00   .00   .00   .00   .00   .00   .00   .00   .00   .00   .00
        .00   .00   .00   .00   .00   .00   .00   .00   .00   .00   .00   .00   .00   .00   .00   .00   .00   .00   .00   .00
        .00   .00   .00   .00   .00   .00   .00   .00   .00   .00   .00   .00   .00   .00   .00
0 11    .00   .00   .00   .00   .00   .00   .00   .00   .00   .00   .00   .00   .00   .00   .00   .00   .00   .00   .00   .00
        .00   .00   .00   .00   .00   .00   .00   .00   .00   .00   .00   .00   .00   .00   .00   .00   .00   .00   .00   .00
        .00   .00   .00   .00   .00   .00   .00   .00   .00   .00   .00   .00   .00   .00   .00
0 12    .00   .00   .00   .00   .00   .00   .00   .00   .00   .00   .00   .00   .00   .00   .00   .00   .00   .00   .00   .00
        .00   .00   .00   .00   .00   .00   .00   .00   .00   .00   .00   .00   .00   .00   .00   .00   .00   .00   .00   .00
        .00   .00   .00   .00   .00   .00   .00   .00   .00   .00   .00   .00   .00   .00   .00
0 13    .00   .00   .00   .00   .00   .00   .00   .00   .00   .00   .00   .00   .00   .00   .00   .00   .00   .00   .00   .00
        .00   .00   .00   .00   .00   .00   .00   .00   .00   .00   .00   .00   .00   .00   .00   .00   .00   .00   .00   .00
        .00   .00   .00   .00   .00   .00   .00   .00   .00   .00   .00   .00   .00   .00   .00
0 14    .00   .00   .00   .00   .00   .00   .00   .00   .00   .00   .00   .00   .00   .00   .00   .00   .00   .00   .00   .00
        .00   .00   .00   .00   .00   .00   .00   .00   .00   .00   .00   .00   .00   .00   .00   .00   .00   .00   .00   .00
        .00   .00   .00   .00   .00   .00   .00   .00   .00   .00   .00   .00   .00   .00   .00
0 15    .00   .00   .00   .00   .00   .00   .00   .00   .00   .00   .00   .00   .00   .00   .00   .00   .00   .00   .00   .00
        .00   .00   .00   .00   .00   .00   .00   .00   .00   .00   .00   .00   .00   .00   .00   .00   .00   .00   .00   .00
        .00   .00   .00   .00   .00   .00   .00   .00   .00   .00   .00   .00   .00   .00   .00
0 16    .00   .00   .00   .00   .00   .00   .00   .00   .00   .00   .00   .00   .00   .00   .00   .00   .00   .00   .00   .00
        .00   .00   .00   .00   .00   .00   .00   .00   .00   .00   .00   .00   .00   .00   .00   .00   .00   .00   .00   .00
        .00   .00   .00   .00   .00   .00   .00   .00   .00   .00   .00   .00   .00   .00   .00
0 17    .00   .00   .00   .00   .00   .00   .00   .00   .00   .00   .00   .00   .00   .00   .00   .00   .00   .00   .00   .00
        .00   .00   .00   .00   .00   .00   .00   .00   .00   .00   .00   .00   .00   .00   .00   .00   .00   .00   .00   .00
        .00   .00   .00   .00   .00   .00   .00   .00   .00   .00   .00   .00   .00   .00   .00
0 18    .00   .00   .00   .00   .00   .00   .00   .00   .00   .00   .00   .00   .00   .00   .00   .00   .00   .00   .00   .00
        .00   .00   .00   .00   .00   .00   .00   .00   .00   .00   .00   .00   .00   .00   .00   .00   .00   .00   .00   .00
        .00   .00   .00   .00   .00   .00   .00   .00   .00   .00   .00   .00   .00   .00   .00
0 19    .00   .00   .00   .00   .00   .00   .00   .00   .00   .00   .00   .00   .00   .00   .00   .00   .00   .00   .00   .00
        .00   .00   .00   .00   .00   .00   .00   .00   .00   .00   .00   .00   .00   .00   .00   .00   .00   .00   .00   .00
        .00   .00   .00   .00   .00   .00   .00   .00   .00   .00   .00   .00   .00   .00   .00
0 20    .00   .00   .00   .00   .00   .00   .00   .00   .00   .00   .00   .00   .00   .00   .00   .00   .00   .00   .00   .00
        .00   .00   .00   .00   .00   .00   .00   .00   .00   .00   .00   .00   .00   .00   .00   .00   .00   .00   .00   .00
        .00   .00   .00   .00   .00   .00   .00   .00   .00   .00   .00   .00   .00   .00   .00
0 21    .00   .00   .00   .00   .00   .00   .00   .00   .00   .00   .00   .00   .00   .00   .00   .00   .00   .00   .00   .00
        .00   .00   .00   .00   .00   .00   .00   .00   .00   .00   .00   .00   .00   .00   .00   .00   .00   .00   .00   .00
        .00   .00   .00   .00   .00   .00   .00   .00   .00   .00   .00   .00   .00   .00   .00
0 22    .00   .00   .00   .00   .00   .00   .00   .00   .00   .00   .00   .00   .00   .00   .00   .00   .00   .00   .00   .00
        .00   .00   .00   .00   .00   .00   .00   .00   .00   .00   .01   .01   .01   .00   .00   .00   .00   .00   .00   .00
        .00   .00   .00   .00   .00   .00   .00   .00   .00   .00   .00   .00   .00   .00   .00
0 23    .00   .00   .00   .00   .00   .00   .00   .00   .00   .00   .00   .00   .00   .00   .00   .00   .00   .00   .00   .00
        .00   .00   .00   .00   .00   .00   .00   .01   .01   .01   .02   .02   .02   .01   .01   .01   .00   .00   .00   .00
        .00   .00   .00   .00   .00   .00   .00   .00   .00   .00   .00   .00   .00   .00   .00
0 24    .00   .00   .00   .00   .00   .00   .00   .00   .00   .00   .00   .00   .00   .00   .00   .00   .00   .00   .00   .00
        .00   .00   .00   .00   .00   .01   .01   .01   .02   .03   .04   .04   .04   .03   .02   .02   .00   .00   .00   .00
        .00   .00   .00   .00   .00   .00   .00   .00   .00   .00   .00   .00   .00   .00   .00
0 25    .00   .00   .00   .00   .00   .00   .00   .00   .00   .00   .00   .00   .00   .00   .00   .00   .00   .00   .00   .00
        .00   .00   .00   .00   .00   .01   .01   .03   .04   .06   .08   .09   .08   .06   .04   .03   .02   .01   .01   .00
        .00   .00   .00   .00   .00   .00   .00   .00   .00   .00   .00   .00   .00   .00   .00
0 26    .00   .00   .00   .00   .00   .00   .00   .00   .00   .00   .00   .00   .00   .00   .00   .00   .00   .00   .00   .00
        .00   .00   .00   .00   .01   .01   .02   .04   .07   .10   .14   .16   .14   .10   .07   .04   .02   .01   .01   .00
        .00   .00   .00   .00   .00   .00   .00   .00   .00   .00   .00   .00   .00   .00   .00
0 27    .00   .00   .00   .00   .00   .00   .00   .00   .00   .00   .00   .00   .00   .00   .00   .00   .00   .00   .00   .00
        .00   .00   .00   .00   .01   .02   .03   .06   .10   .17   .26   .32   .25   .17   .10   .06   .03   .02   .01   .00
        .00   .00   .00   .00   .00   .00   .00   .00   .00   .00   .00   .00   .00   .00   .00
0 28    .00   .00   .00   .00   .00   .00   .00   .00   .00   .00   .00   .00   .00   .00   .00   .00   .00   .00   .00   .00
        .00   .00   .00   .00   .01   .02   .04   .07   .14   .25   .44   .67   .45   .26   .14   .07   .04   .02   .01   .01
        .00   .00   .00   .00   .00   .00   .00   .00   .00   .00   .00   .00   .00   .00   .00
0 29    .00   .00   .00   .00   .00   .00   .00   .00   .00   .00   .00   .00   .00   .00   .00   .00   .00   .00   .00   .00
        .00   .00   .00   .00   .01   .02   .04   .08   .16   .32   .67  1.54   .68   .33   .17   .08   .04   .02   .01   .01
        .00   .00   .00   .00   .00   .00   .00   .00   .00   .00   .00   .00   .00   .00   .00
0 30    .00   .00   .00   .00   .00   .00   .00   .00   .00   .00   .00   .00   .00   .00   .00   .00   .00   .00   .00   .00
        .00   .00   .00   .00   .01   .02   .04   .07   .14   .26   .45   .68   .46   .26   .14   .08   .04   .02   .01   .00
        .00   .00   .00   .00   .00   .00   .00   .00   .00   .00   .00   .00   .00   .00   .00
0 31    .00   .00   .00   .00   .00   .00   .00   .00   .00   .00   .00   .00   .00   .00   .00   .00   .00   .00   .00   .00
        .00   .00   .00   .00   .01   .02   .03   .06   .10   .17   .26   .33   .26   .17   .10   .06   .03   .02   .01   .00
        .00   .00   .00   .00   .00   .00   .00   .00   .00   .00   .00   .00   .00   .00   .00
0 32    .00   .00   .00   .00   .00   .00   .00   .00   .00   .00   .00   .00   .00   .00   .00   .00   .00   .00   .00   .00
        .00   .00   .00   .00   .01   .01   .02   .04   .07   .10   .14   .17   .14   .10   .07   .04   .02   .01   .01   .00
        .00   .00   .00   .00   .00   .00   .00   .00   .00   .00   .00   .00   .00   .00   .00
0 33    .00   .00   .00   .00   .00   .00   .00   .00   .00   .00   .00   .00   .00   .00   .00   .00   .00   .00   .00   .00
        .00   .00   .00   .00   .00   .01   .01   .02   .04   .06   .08   .08   .08   .06   .04   .02   .01   .01   .00   .00
        .00   .00   .00   .00   .00   .00   .00   .00   .00   .00   .00   .00   .00   .00   .00
0 34    .00   .00   .00   .00   .00   .00   .00   .00   .00   .00   .00   .00   .00   .00   .00   .00   .00   .00   .00   .00
        .00   .00   .00   .00   .00   .01   .01   .01   .02   .03   .04   .04   .04   .03   .02   .01   .01   .01   .00   .00
        .00   .00   .00   .00   .00   .00   .00   .00   .00   .00   .00   .00   .00   .00   .00
0 35    .00   .00   .00   .00   .00   .00   .00   .00   .00   .00   .00   .00   .00   .00   .00   .00   .00   .00   .00   .00
        .00   .00   .00   .00   .00   .00   .01   .01   .01   .02   .02   .02   .02   .02   .01   .01   .01   .00   .00   .00
        .00   .00   .00   .00   .00   .00   .00   .00   .00   .00   .00   .00   .00   .00   .00
0 36    .00   .00   .00   .00   .00   .00   .00   .00   .00   .00   .00   .00   .00   .00   .00   .00   .00   .00   .00   .00
        .00   .00   .00   .00   .00   .00   .00   .00   .01   .01   .01   .01   .01   .01   .01   .00   .00   .00   .00   .00
        .00   .00   .00   .00   .00   .00   .00   .00   .00   .00   .00   .00   .00   .00   .00
0 37    .00   .00   .00   .00   .00   .00   .00   .00   .00   .00   .00   .00   .00   .00   .00   .00   .00   .00   .00   .00
        .00   .00   .00   .00   .00   .00   .00   .00   .00   .00   .00   .01   .00   .00   .00   .00   .00   .00   .00   .00
        .00   .00   .00   .00   .00   .00   .00   .00   .00   .00   .00   .00   .00   .00   .00
0 38    .00   .00   .00   .00   .00   .00   .00   .00   .00   .00   .00   .00   .00   .00   .00   .00   .00   .00   .00   .00
        .00   .00   .00   .00   .00   .00   .00   .00   .00   .00   .00   .00   .00   .00   .00   .00   .00   .00   .00   .00
        .00   .00   .00   .00   .00   .00   .00   .00   .00   .00   .00   .00   .00   .00   .00
0 39    .00   .00   .00   .00   .00   .00   .00   .00   .00   .00   .00   .00   .00   .00   .00   .00   .00   .00   .00   .00
        .00   .00   .00   .00   .00   .00   .00   .00   .00   .00   .00   .00   .00   .00   .00   .00   .00   .00   .00   .00
        .00   .00   .00   .00   .00   .00   .00   .00   .00   .00   .00   .00   .00   .00   .00
0 40    .00   .00   .00   .00   .00   .00   .00   .00   .00   .00   .00   .00   .00   .00   .00   .00   .00   .00   .00   .00
        .00   .00   .00   .00   .00   .00   .00   .00   .00   .00   .00   .00   .00   .00   .00   .00   .00   .00   .00   .00
        .00   .00   .00   .00   .00   .00   .00   .00   .00   .00   .00   .00   .00   .00   .00
0 41    .00   .00   .00   .00   .00   .00   .00   .00   .00   .00   .00   .00   .00   .00   .00   .00   .00   .00   .00   .00
        .00   .00   .00   .00   .00   .00   .00   .00   .00   .00   .00   .00   .00   .00   .00   .00   .00   .00   .00   .00
        .00   .00   .00   .00   .00   .00   .00   .00   .00   .00   .00   .00   .00   .00   .00
0 42    .00   .00   .00   .00   .00   .00   .00   .00   .00   .00   .00   .00   .00   .00   .00   .00   .00   .00   .00   .00
        .00   .00   .00   .00   .00   .00   .00   .00   .00   .00   .00   .00   .00   .00   .00   .00   .00   .00   .00   .00
        .00   .00   .00   .00   .00   .00   .00   .00   .00   .00   .00   .00   .00   .00   .00
0 43    .00   .00   .00   .00   .00   .00   .00   .00   .00   .00   .00   .00   .00   .00   .00   .00   .00   .00   .00   .00
        .00   .00   .00   .00   .00   .00   .00   .00   .00   .00   .00   .00   .00   .00   .00   .00   .00   .00   .00   .00
        .00   .00   .00   .00   .00   .00   .00   .00   .00   .00   .00   .00   .00   .00   .00
0 44    .00   .00   .00   .00   .00   .00   .00   .00   .00   .00   .00   .00   .00   .00   .00   .00   .00   .00   .00   .00
        .00   .00   .00   .00   .00   .00   .00   .00   .00   .00   .00   .00   .00   .00   .00   .00   .00   .00   .00   .00
        .00   .00   .00   .00   .00   .00   .00   .00   .00   .00   .00   .00   .00   .00   .00
0


                              VOLUMETRIC BUDGET FOR ENTIRE MODEL AT END OF TIME STEP  8 IN STRESS PERIOD  1
                              -----------------------------------------------------------------------------
0                   CUMULATIVE VOLUMES      L**3                                     RATES FOR THIS TIME STEP      L**3/T
                    ------------------                                               ------------------------

                          IN:                                                                    IN:
                          ---                                                                    ---
                            STORAGE =    10162.                                                    STORAGE =    .92394    
                      CONSTANT HEAD =    .00000                                              CONSTANT HEAD =    .00000    
                              WELLS =    .00000                                                      WELLS =    .00000    
                      RIVER LEAKAGE =    247.24                                              RIVER LEAKAGE =    .39066E-01
0                          TOTAL IN =    10410.                                                   TOTAL IN =    .96300    
0                        OUT:                                                                   OUT:
                         ----                                                                   ----
                            STORAGE =    .00000                                                    STORAGE =    .00000    
                      CONSTANT HEAD =    .00000                                              CONSTANT HEAD =    .00000    
                              WELLS =    10410.                                                      WELLS =    .96300    
                      RIVER LEAKAGE =    .00000                                              RIVER LEAKAGE =    .00000    
0                         TOTAL OUT =    10410.                                                  TOTAL OUT =    .96300    
0                          IN - OUT =   -.34180E-01                                               IN - OUT =    .77486E-06
0               PERCENT DISCREPANCY =                 .00                              PERCENT DISCREPANCY =                 .00



0


          TIME SUMMARY AT END OF TIME STEP  8 IN STRESS PERIOD  1
                               SECONDS        MINUTES         HOURS          DAYS           YEARS
                           ---------------------------------------------------------------------------
      TIME STEP LENGTH         3376.15        56.2691        .937819        .390758E-01    .106984E-03
    STRESS PERIOD TIME         10809.5        180.159        3.00265        .125110        .342533E-03
 TOTAL SIMULATION TIME         10809.5        180.159        3.00265        .125110        .342533E-03
1
     5 ITERATIONS FOR TIME STEP   9 IN STRESS PERIOD  1
0MAXIMUM HEAD CHANGE FOR EACH ITERATION:
0 HEAD CHANGE LAYER,ROW,COL HEAD CHANGE LAYER,ROW,COL HEAD CHANGE LAYER,ROW,COL HEAD CHANGE LAYER,ROW,COL HEAD CHANGE LAYER,ROW,COL
 ------------------------------------------------------------------------------------------------------------------------------------
   -.6003E-01 (  1, 29, 32)  -.3481E-01 (  1, 29, 32)  -.7224E-02 (  1, 29, 32)  -.3758E-03 (  1, 26, 35)  -.5693E-04 (  1, 25, 37)
0
0HEAD/DRAWDOWN PRINTOUT FLAG = 1     TOTAL BUDGET PRINTOUT FLAG = 1     CELL-BY-CELL FLOW TERM FLAG = 0
0OUTPUT FLAGS FOR ALL LAYERS ARE THE SAME:
   HEAD    DRAWDOWN  HEAD  DRAWDOWN
 PRINTOUT  PRINTOUT  SAVE    SAVE
 ----------------------------------
     0         1       0       0
1                  DRAWDOWN IN LAYER  1 AT END OF TIME STEP  9 IN STRESS PERIOD  1
           -----------------------------------------------------------------------

         1     2     3     4     5     6     7     8     9    10    11    12    13    14    15    16    17    18    19    20
        21    22    23    24    25    26    27    28    29    30    31    32    33    34    35    36    37    38    39    40
        41    42    43    44    45    46    47    48    49    50    51    52    53    54    55
 ................................................................................................................................
0  1    .00   .00   .00   .00   .00   .00   .00   .00   .00   .00   .00   .00   .00   .00   .00   .00   .00   .00   .00   .00
        .00   .00   .00   .00   .00   .00   .00   .00   .00   .00   .00   .00   .00   .00   .00   .00   .00   .00   .00   .00
        .00   .00   .00   .00   .00   .00   .00   .00   .00   .00   .00   .00   .00   .00   .00
0  2    .00   .00   .00   .00   .00   .00   .00   .00   .00   .00   .00   .00   .00   .00   .00   .00   .00   .00   .00   .00
        .00   .00   .00   .00   .00   .00   .00   .00   .00   .00   .00   .00   .00   .00   .00   .00   .00   .00   .00   .00
        .00   .00   .00   .00   .00   .00   .00   .00   .00   .00   .00   .00   .00   .00   .00
0  3    .00   .00   .00   .00   .00   .00   .00   .00   .00   .00   .00   .00   .00   .00   .00   .00   .00   .00   .00   .00
        .00   .00   .00   .00   .00   .00   .00   .00   .00   .00   .00   .00   .00   .00   .00   .00   .00   .00   .00   .00
        .00   .00   .00   .00   .00   .00   .00   .00   .00   .00   .00   .00   .00   .00   .00
0  4    .00   .00   .00   .00   .00   .00   .00   .00   .00   .00   .00   .00   .00   .00   .00   .00   .00   .00   .00   .00
        .00   .00   .00   .00   .00   .00   .00   .00   .00   .00   .00   .00   .00   .00   .00   .00   .00   .00   .00   .00
        .00   .00   .00   .00   .00   .00   .00   .00   .00   .00   .00   .00   .00   .00   .00
0  5    .00   .00   .00   .00   .00   .00   .00   .00   .00   .00   .00   .00   .00   .00   .00   .00   .00   .00   .00   .00
        .00   .00   .00   .00   .00   .00   .00   .00   .00   .00   .00   .00   .00   .00   .00   .00   .00   .00   .00   .00
        .00   .00   .00   .00   .00   .00   .00   .00   .00   .00   .00   .00   .00   .00   .00
0  6    .00   .00   .00   .00   .00   .00   .00   .00   .00   .00   .00   .00   .00   .00   .00   .00   .00   .00   .00   .00
        .00   .00   .00   .00   .00   .00   .00   .00   .00   .00   .00   .00   .00   .00   .00   .00   .00   .00   .00   .00
        .00   .00   .00   .00   .00   .00   .00   .00   .00   .00   .00   .00   .00   .00   .00
0  7    .00   .00   .00   .00   .00   .00   .00   .00   .00   .00   .00   .00   .00   .00   .00   .00   .00   .00   .00   .00
        .00   .00   .00   .00   .00   .00   .00   .00   .00   .00   .00   .00   .00   .00   .00   .00   .00   .00   .00   .00
        .00   .00   .00   .00   .00   .00   .00   .00   .00   .00   .00   .00   .00   .00   .00
0  8    .00   .00   .00   .00   .00   .00   .00   .00   .00   .00   .00   .00   .00   .00   .00   .00   .00   .00   .00   .00
        .00   .00   .00   .00   .00   .00   .00   .00   .00   .00   .00   .00   .00   .00   .00   .00   .00   .00   .00   .00
        .00   .00   .00   .00   .00   .00   .00   .00   .00   .00   .00   .00   .00   .00   .00
0  9    .00   .00   .00   .00   .00   .00   .00   .00   .00   .00   .00   .00   .00   .00   .00   .00   .00   .00   .00   .00
        .00   .00   .00   .00   .00   .00   .00   .00   .00   .00   .00   .00   .00   .00   .00   .00   .00   .00   .00   .00
        .00   .00   .00   .00   .00   .00   .00   .00   .00   .00   .00   .00   .00   .00   .00
0 10    .00   .00   .00   .00   .00   .00   .00   .00   .00   .00   .00   .00   .00   .00   .00   .00   .00   .00   .00   .00
        .00   .00   .00   .00   .00   .00   .00   .00   .00   .00   .00   .00   .00   .00   .00   .00   .00   .00   .00   .00
        .00   .00   .00   .00   .00   .00   .00   .00   .00   .00   .00   .00   .00   .00   .00
0 11    .00   .00   .00   .00   .00   .00   .00   .00   .00   .00   .00   .00   .00   .00   .00   .00   .00   .00   .00   .00
        .00   .00   .00   .00   .00   .00   .00   .00   .00   .00   .00   .00   .00   .00   .00   .00   .00   .00   .00   .00
        .00   .00   .00   .00   .00   .00   .00   .00   .00   .00   .00   .00   .00   .00   .00
0 12    .00   .00   .00   .00   .00   .00   .00   .00   .00   .00   .00   .00   .00   .00   .00   .00   .00   .00   .00   .00
        .00   .00   .00   .00   .00   .00   .00   .00   .00   .00   .00   .00   .00   .00   .00   .00   .00   .00   .00   .00
        .00   .00   .00   .00   .00   .00   .00   .00   .00   .00   .00   .00   .00   .00   .00
0 13    .00   .00   .00   .00   .00   .00   .00   .00   .00   .00   .00   .00   .00   .00   .00   .00   .00   .00   .00   .00
        .00   .00   .00   .00   .00   .00   .00   .00   .00   .00   .00   .00   .00   .00   .00   .00   .00   .00   .00   .00
        .00   .00   .00   .00   .00   .00   .00   .00   .00   .00   .00   .00   .00   .00   .00
0 14    .00   .00   .00   .00   .00   .00   .00   .00   .00   .00   .00   .00   .00   .00   .00   .00   .00   .00   .00   .00
        .00   .00   .00   .00   .00   .00   .00   .00   .00   .00   .00   .00   .00   .00   .00   .00   .00   .00   .00   .00
        .00   .00   .00   .00   .00   .00   .00   .00   .00   .00   .00   .00   .00   .00   .00
0 15    .00   .00   .00   .00   .00   .00   .00   .00   .00   .00   .00   .00   .00   .00   .00   .00   .00   .00   .00   .00
        .00   .00   .00   .00   .00   .00   .00   .00   .00   .00   .00   .00   .00   .00   .00   .00   .00   .00   .00   .00
        .00   .00   .00   .00   .00   .00   .00   .00   .00   .00   .00   .00   .00   .00   .00
0 16    .00   .00   .00   .00   .00   .00   .00   .00   .00   .00   .00   .00   .00   .00   .00   .00   .00   .00   .00   .00
        .00   .00   .00   .00   .00   .00   .00   .00   .00   .00   .00   .00   .00   .00   .00   .00   .00   .00   .00   .00
        .00   .00   .00   .00   .00   .00   .00   .00   .00   .00   .00   .00   .00   .00   .00
0 17    .00   .00   .00   .00   .00   .00   .00   .00   .00   .00   .00   .00   .00   .00   .00   .00   .00   .00   .00   .00
        .00   .00   .00   .00   .00   .00   .00   .00   .00   .00   .00   .00   .00   .00   .00   .00   .00   .00   .00   .00
        .00   .00   .00   .00   .00   .00   .00   .00   .00   .00   .00   .00   .00   .00   .00
0 18    .00   .00   .00   .00   .00   .00   .00   .00   .00   .00   .00   .00   .00   .00   .00   .00   .00   .00   .00   .00
        .00   .00   .00   .00   .00   .00   .00   .00   .00   .00   .00   .00   .00   .00   .00   .00   .00   .00   .00   .00
        .00   .00   .00   .00   .00   .00   .00   .00   .00   .00   .00   .00   .00   .00   .00
0 19    .00   .00   .00   .00   .00   .00   .00   .00   .00   .00   .00   .00   .00   .00   .00   .00   .00   .00   .00   .00
        .00   .00   .00   .00   .00   .00   .00   .00   .00   .00   .00   .00   .00   .00   .00   .00   .00   .00   .00   .00
        .00   .00   .00   .00   .00   .00   .00   .00   .00   .00   .00   .00   .00   .00   .00
0 20    .00   .00   .00   .00   .00   .00   .00   .00   .00   .00   .00   .00   .00   .00   .00   .00   .00   .00   .00   .00
        .00   .00   .00   .00   .00   .00   .00   .00   .00   .00   .00   .00   .00   .00   .00   .00   .00   .00   .00   .00
        .00   .00   .00   .00   .00   .00   .00   .00   .00   .00   .00   .00   .00   .00   .00
0 21    .00   .00   .00   .00   .00   .00   .00   .00   .00   .00   .00   .00   .00   .00   .00   .00   .00   .00   .00   .00
        .00   .00   .00   .00   .00   .00   .00   .00   .00   .00   .00   .01   .01   .00   .00   .00   .00   .00   .00   .00
        .00   .00   .00   .00   .00   .00   .00   .00   .00   .00   .00   .00   .00   .00   .00
0 22    .00   .00   .00   .00   .00   .00   .00   .00   .00   .00   .00   .00   .00   .00   .00   .00   .00   .00   .00   .00
        .00   .00   .00   .00   .00   .00   .00   .01   .01   .01   .02   .02   .02   .01   .01   .01   .00   .00   .00   .00
        .00   .00   .00   .00   .00   .00   .00   .00   .00   .00   .00   .00   .00   .00   .00
0 23    .00   .00   .00   .00   .00   .00   .00   .00   .00   .00   .00   .00   .00   .00   .00   .00   .00   .00   .00   .00
        .00   .00   .00   .00   .01   .01   .01   .02   .02   .03   .04   .04   .04   .03   .03   .02   .00   .00   .00   .00
        .00   .00   .00   .00   .00   .00   .00   .00   .00   .00   .00   .00   .00   .00   .00
0 24    .00   .00   .00   .00   .00   .00   .00   .00   .00   .00   .00   .00   .00   .00   .00   .00   .00   .00   .00   .00
        .00   .00   .00   .01   .01   .01   .02   .03   .04   .06   .07   .08   .07   .06   .05   .04   .00   .00   .00   .00
        .00   .00   .00   .00   .00   .00   .00   .00   .00   .00   .00   .00   .00   .00   .00
0 25    .00   .00   .00   .00   .00   .00   .00   .00   .00   .00   .00   .00   .00   .00   .00   .00   .00   .00   .00   .00
        .00   .00   .00   .01   .01   .02   .03   .05   .08   .10   .13   .14   .13   .11   .08   .06   .04   .03   .02   .01
        .00   .00   .00   .00   .00   .00   .00   .00   .00   .00   .00   .00   .00   .00   .00
0 26    .00   .00   .00   .00   .00   .00   .00   .00   .00   .00   .00   .00   .00   .00   .00   .00   .00   .00   .00   .00
        .00   .00   .00   .01   .01   .03   .04   .07   .11   .16   .21   .23   .20   .16   .11   .07   .05   .03   .02   .01
        .00   .00   .00   .00   .00   .00   .00   .00   .00   .00   .00   .00   .00   .00   .00
0 27    .00   .00   .00   .00   .00   .00   .00   .00   .00   .00   .00   .00   .00   .00   .00   .00   .00   .00   .00   .00
        .00   .00   .01   .01   .02   .03   .06   .09   .15   .23   .33   .40   .33   .23   .15   .10   .06   .04   .02   .01
        .01   .00   .00   .00   .00   .00   .00   .00   .00   .00   .00   .00   .00   .00   .00
0 28    .00   .00   .00   .00   .00   .00   .00   .00   .00   .00   .00   .00   .00   .00   .00   .00   .00   .00   .00   .00
        .00   .00   .01   .01   .02   .04   .06   .11   .19   .33   .53   .77   .54   .34   .20   .12   .07   .04   .02   .01
        .01   .00   .00   .00   .00   .00   .00   .00   .00   .00   .00   .00   .00   .00   .00
0 29    .00   .00   .00   .00   .00   .00   .00   .00   .00   .00   .00   .00   .00   .00   .00   .00   .00   .00   .00   .00
        .00   .00   .01   .01   .02   .04   .07   .13   .23   .41   .77  1.64   .77   .41   .23   .13   .07   .04   .02   .01
        .01   .00   .00   .00   .00   .00   .00   .00   .00   .00   .00   .00   .00   .00   .00
0 30    .00   .00   .00   .00   .00   .00   .00   .00   .00   .00   .00   .00   .00   .00   .00   .00   .00   .00   .00   .00
        .00   .00   .01   .01   .02   .04   .07   .12   .20   .34   .55   .78   .55   .34   .21   .12   .07   .04   .02   .01
        .01   .00   .00   .00   .00   .00   .00   .00   .00   .00   .00   .00   .00   .00   .00
0 31    .00   .00   .00   .00   .00   .00   .00   .00   .00   .00   .00   .00   .00   .00   .00   .00   .00   .00   .00   .00
        .00   .00   .01   .01   .02   .03   .06   .10   .16   .24   .34   .41   .34   .24   .16   .10   .06   .03   .02   .01
        .01   .00   .00   .00   .00   .00   .00   .00   .00   .00   .00   .00   .00   .00   .00
0 32    .00   .00   .00   .00   .00   .00   .00   .00   .00   .00   .00   .00   .00   .00   .00   .00   .00   .00   .00   .00
        .00   .00   .00   .01   .02   .03   .04   .07   .11   .16   .21   .23   .21   .16   .11   .07   .04   .03   .02   .01
        .00   .00   .00   .00   .00   .00   .00   .00   .00   .00   .00   .00   .00   .00   .00
0 33    .00   .00   .00   .00   .00   .00   .00   .00   .00   .00   .00   .00   .00   .00   .00   .00   .00   .00   .00   .00
        .00   .00   .00   .01   .01   .02   .03   .05   .07   .10   .12   .13   .12   .10   .07   .05   .03   .02   .01   .01
        .00   .00   .00   .00   .00   .00   .00   .00   .00   .00   .00   .00   .00   .00   .00
0 34    .00   .00   .00   .00   .00   .00   .00   .00   .00   .00   .00   .00   .00   .00   .00   .00   .00   .00   .00   .00
        .00   .00   .00   .01   .01   .01   .02   .03   .04   .06   .07   .08   .07   .06   .04   .03   .02   .01   .01   .01
        .00   .00   .00   .00   .00   .00   .00   .00   .00   .00   .00   .00   .00   .00   .00
0 35    .00   .00   .00   .00   .00   .00   .00   .00   .00   .00   .00   .00   .00   .00   .00   .00   .00   .00   .00   .00
        .00   .00   .00   .00   .01   .01   .01   .02   .03   .03   .04   .04   .04   .03   .03   .02   .01   .01   .01   .00
        .00   .00   .00   .00   .00   .00   .00   .00   .00   .00   .00   .00   .00   .00   .00
0 36    .00   .00   .00   .00   .00   .00   .00   .00   .00   .00   .00   .00   .00   .00   .00   .00   .00   .00   .00   .00
        .00   .00   .00   .00   .00   .01   .01   .01   .02   .02   .02   .02   .02   .02   .02   .01   .01   .01   .00   .00
        .00   .00   .00   .00   .00   .00   .00   .00   .00   .00   .00   .00   .00   .00   .00
0 37    .00   .00   .00   .00   .00   .00   .00   .00   .00   .00   .00   .00   .00   .00   .00   .00   .00   .00   .00   .00
        .00   .00   .00   .00   .00   .00   .01   .01   .01   .01   .01   .01   .01   .01   .01   .01   .01   .00   .00   .00
        .00   .00   .00   .00   .00   .00   .00   .00   .00   .00   .00   .00   .00   .00   .00
0 38    .00   .00   .00   .00   .00   .00   .00   .00   .00   .00   .00   .00   .00   .00   .00   .00   .00   .00   .00   .00
        .00   .00   .00   .00   .00   .00   .00   .00   .01   .01   .01   .01   .01   .01   .01   .00   .00   .00   .00   .00
        .00   .00   .00   .00   .00   .00   .00   .00   .00   .00   .00   .00   .00   .00   .00
0 39    .00   .00   .00   .00   .00   .00   .00   .00   .00   .00   .00   .00   .00   .00   .00   .00   .00   .00   .00   .00
        .00   .00   .00   .00   .00   .00   .00   .00   .00   .00   .00   .00   .00   .00   .00   .00   .00   .00   .00   .00
        .00   .00   .00   .00   .00   .00   .00   .00   .00   .00   .00   .00   .00   .00   .00
0 40    .00   .00   .00   .00   .00   .00   .00   .00   .00   .00   .00   .00   .00   .00   .00   .00   .00   .00   .00   .00
        .00   .00   .00   .00   .00   .00   .00   .00   .00   .00   .00   .00   .00   .00   .00   .00   .00   .00   .00   .00
        .00   .00   .00   .00   .00   .00   .00   .00   .00   .00   .00   .00   .00   .00   .00
0 41    .00   .00   .00   .00   .00   .00   .00   .00   .00   .00   .00   .00   .00   .00   .00   .00   .00   .00   .00   .00
        .00   .00   .00   .00   .00   .00   .00   .00   .00   .00   .00   .00   .00   .00   .00   .00   .00   .00   .00   .00
        .00   .00   .00   .00   .00   .00   .00   .00   .00   .00   .00   .00   .00   .00   .00
0 42    .00   .00   .00   .00   .00   .00   .00   .00   .00   .00   .00   .00   .00   .00   .00   .00   .00   .00   .00   .00
        .00   .00   .00   .00   .00   .00   .00   .00   .00   .00   .00   .00   .00   .00   .00   .00   .00   .00   .00   .00
        .00   .00   .00   .00   .00   .00   .00   .00   .00   .00   .00   .00   .00   .00   .00
0 43    .00   .00   .00   .00   .00   .00   .00   .00   .00   .00   .00   .00   .00   .00   .00   .00   .00   .00   .00   .00
        .00   .00   .00   .00   .00   .00   .00   .00   .00   .00   .00   .00   .00   .00   .00   .00   .00   .00   .00   .00
        .00   .00   .00   .00   .00   .00   .00   .00   .00   .00   .00   .00   .00   .00   .00
0 44    .00   .00   .00   .00   .00   .00   .00   .00   .00   .00   .00   .00   .00   .00   .00   .00   .00   .00   .00   .00
        .00   .00   .00   .00   .00   .00   .00   .00   .00   .00   .00   .00   .00   .00   .00   .00   .00   .00   .00   .00
        .00   .00   .00   .00   .00   .00   .00   .00   .00   .00   .00   .00   .00   .00   .00
0


                              VOLUMETRIC BUDGET FOR ENTIRE MODEL AT END OF TIME STEP  9 IN STRESS PERIOD  1
                              -----------------------------------------------------------------------------
0                   CUMULATIVE VOLUMES      L**3                                     RATES FOR THIS TIME STEP      L**3/T
                    ------------------                                               ------------------------

                          IN:                                                                    IN:
                          ---                                                                    ---
                            STORAGE =    14504.                                                    STORAGE =    .90947    
                      CONSTANT HEAD =    .00000                                              CONSTANT HEAD =    .00000    
                              WELLS =    .00000                                                      WELLS =    .00000    
                      RIVER LEAKAGE =    502.79                                              RIVER LEAKAGE =    .53531E-01
0                          TOTAL IN =    15007.                                                   TOTAL IN =    .96301    
0                        OUT:                                                                   OUT:
                         ----                                                                   ----
                            STORAGE =    .00000                                                    STORAGE =    .00000    
                      CONSTANT HEAD =    .00000                                              CONSTANT HEAD =    .00000    
                              WELLS =    15007.                                                      WELLS =    .96300    
                      RIVER LEAKAGE =    .00000                                              RIVER LEAKAGE =    .00000    
0                         TOTAL OUT =    15007.                                                  TOTAL OUT =    .96300    
0                          IN - OUT =   -.58594E-02                                               IN - OUT =    .59009E-05
0               PERCENT DISCREPANCY =                 .00                              PERCENT DISCREPANCY =                 .00



0


          TIME SUMMARY AT END OF TIME STEP  9 IN STRESS PERIOD  1
                               SECONDS        MINUTES         HOURS          DAYS           YEARS
                           ---------------------------------------------------------------------------
      TIME STEP LENGTH         4773.87        79.5645        1.32608        .552531E-01    .151275E-03
    STRESS PERIOD TIME         15583.4        259.723        4.32872        .180363        .493808E-03
 TOTAL SIMULATION TIME         15583.4        259.723        4.32872        .180363        .493808E-03
1
     6 ITERATIONS FOR TIME STEP  10 IN STRESS PERIOD  1
0MAXIMUM HEAD CHANGE FOR EACH ITERATION:
0 HEAD CHANGE LAYER,ROW,COL HEAD CHANGE LAYER,ROW,COL HEAD CHANGE LAYER,ROW,COL HEAD CHANGE LAYER,ROW,COL HEAD CHANGE LAYER,ROW,COL
 ------------------------------------------------------------------------------------------------------------------------------------
   -.4736E-01 (  1, 29, 32)  -.3816E-01 (  1, 29, 32)  -.1198E-01 (  1, 29, 32)  -.9153E-03 (  1, 26, 35)  -.1487E-03 (  1, 25, 37)
    .2975E-04 (  1, 25, 38)
0
0HEAD/DRAWDOWN PRINTOUT FLAG = 1     TOTAL BUDGET PRINTOUT FLAG = 1     CELL-BY-CELL FLOW TERM FLAG = 0
0OUTPUT FLAGS FOR ALL LAYERS ARE THE SAME:
   HEAD    DRAWDOWN  HEAD  DRAWDOWN
 PRINTOUT  PRINTOUT  SAVE    SAVE
 ----------------------------------
     0         1       0       0
1                  DRAWDOWN IN LAYER  1 AT END OF TIME STEP 10 IN STRESS PERIOD  1
           -----------------------------------------------------------------------

         1     2     3     4     5     6     7     8     9    10    11    12    13    14    15    16    17    18    19    20
        21    22    23    24    25    26    27    28    29    30    31    32    33    34    35    36    37    38    39    40
        41    42    43    44    45    46    47    48    49    50    51    52    53    54    55
 ................................................................................................................................
0  1    .00   .00   .00   .00   .00   .00   .00   .00   .00   .00   .00   .00   .00   .00   .00   .00   .00   .00   .00   .00
        .00   .00   .00   .00   .00   .00   .00   .00   .00   .00   .00   .00   .00   .00   .00   .00   .00   .00   .00   .00
        .00   .00   .00   .00   .00   .00   .00   .00   .00   .00   .00   .00   .00   .00   .00
0  2    .00   .00   .00   .00   .00   .00   .00   .00   .00   .00   .00   .00   .00   .00   .00   .00   .00   .00   .00   .00
        .00   .00   .00   .00   .00   .00   .00   .00   .00   .00   .00   .00   .00   .00   .00   .00   .00   .00   .00   .00
        .00   .00   .00   .00   .00   .00   .00   .00   .00   .00   .00   .00   .00   .00   .00
0  3    .00   .00   .00   .00   .00   .00   .00   .00   .00   .00   .00   .00   .00   .00   .00   .00   .00   .00   .00   .00
        .00   .00   .00   .00   .00   .00   .00   .00   .00   .00   .00   .00   .00   .00   .00   .00   .00   .00   .00   .00
        .00   .00   .00   .00   .00   .00   .00   .00   .00   .00   .00   .00   .00   .00   .00
0  4    .00   .00   .00   .00   .00   .00   .00   .00   .00   .00   .00   .00   .00   .00   .00   .00   .00   .00   .00   .00
        .00   .00   .00   .00   .00   .00   .00   .00   .00   .00   .00   .00   .00   .00   .00   .00   .00   .00   .00   .00
        .00   .00   .00   .00   .00   .00   .00   .00   .00   .00   .00   .00   .00   .00   .00
0  5    .00   .00   .00   .00   .00   .00   .00   .00   .00   .00   .00   .00   .00   .00   .00   .00   .00   .00   .00   .00
        .00   .00   .00   .00   .00   .00   .00   .00   .00   .00   .00   .00   .00   .00   .00   .00   .00   .00   .00   .00
        .00   .00   .00   .00   .00   .00   .00   .00   .00   .00   .00   .00   .00   .00   .00
0  6    .00   .00   .00   .00   .00   .00   .00   .00   .00   .00   .00   .00   .00   .00   .00   .00   .00   .00   .00   .00
        .00   .00   .00   .00   .00   .00   .00   .00   .00   .00   .00   .00   .00   .00   .00   .00   .00   .00   .00   .00
        .00   .00   .00   .00   .00   .00   .00   .00   .00   .00   .00   .00   .00   .00   .00
0  7    .00   .00   .00   .00   .00   .00   .00   .00   .00   .00   .00   .00   .00   .00   .00   .00   .00   .00   .00   .00
        .00   .00   .00   .00   .00   .00   .00   .00   .00   .00   .00   .00   .00   .00   .00   .00   .00   .00   .00   .00
        .00   .00   .00   .00   .00   .00   .00   .00   .00   .00   .00   .00   .00   .00   .00
0  8    .00   .00   .00   .00   .00   .00   .00   .00   .00   .00   .00   .00   .00   .00   .00   .00   .00   .00   .00   .00
        .00   .00   .00   .00   .00   .00   .00   .00   .00   .00   .00   .00   .00   .00   .00   .00   .00   .00   .00   .00
        .00   .00   .00   .00   .00   .00   .00   .00   .00   .00   .00   .00   .00   .00   .00
0  9    .00   .00   .00   .00   .00   .00   .00   .00   .00   .00   .00   .00   .00   .00   .00   .00   .00   .00   .00   .00
        .00   .00   .00   .00   .00   .00   .00   .00   .00   .00   .00   .00   .00   .00   .00   .00   .00   .00   .00   .00
        .00   .00   .00   .00   .00   .00   .00   .00   .00   .00   .00   .00   .00   .00   .00
0 10    .00   .00   .00   .00   .00   .00   .00   .00   .00   .00   .00   .00   .00   .00   .00   .00   .00   .00   .00   .00
        .00   .00   .00   .00   .00   .00   .00   .00   .00   .00   .00   .00   .00   .00   .00   .00   .00   .00   .00   .00
        .00   .00   .00   .00   .00   .00   .00   .00   .00   .00   .00   .00   .00   .00   .00
0 11    .00   .00   .00   .00   .00   .00   .00   .00   .00   .00   .00   .00   .00   .00   .00   .00   .00   .00   .00   .00
        .00   .00   .00   .00   .00   .00   .00   .00   .00   .00   .00   .00   .00   .00   .00   .00   .00   .00   .00   .00
        .00   .00   .00   .00   .00   .00   .00   .00   .00   .00   .00   .00   .00   .00   .00
0 12    .00   .00   .00   .00   .00   .00   .00   .00   .00   .00   .00   .00   .00   .00   .00   .00   .00   .00   .00   .00
        .00   .00   .00   .00   .00   .00   .00   .00   .00   .00   .00   .00   .00   .00   .00   .00   .00   .00   .00   .00
        .00   .00   .00   .00   .00   .00   .00   .00   .00   .00   .00   .00   .00   .00   .00
0 13    .00   .00   .00   .00   .00   .00   .00   .00   .00   .00   .00   .00   .00   .00   .00   .00   .00   .00   .00   .00
        .00   .00   .00   .00   .00   .00   .00   .00   .00   .00   .00   .00   .00   .00   .00   .00   .00   .00   .00   .00
        .00   .00   .00   .00   .00   .00   .00   .00   .00   .00   .00   .00   .00   .00   .00
0 14    .00   .00   .00   .00   .00   .00   .00   .00   .00   .00   .00   .00   .00   .00   .00   .00   .00   .00   .00   .00
        .00   .00   .00   .00   .00   .00   .00   .00   .00   .00   .00   .00   .00   .00   .00   .00   .00   .00   .00   .00
        .00   .00   .00   .00   .00   .00   .00   .00   .00   .00   .00   .00   .00   .00   .00
0 15    .00   .00   .00   .00   .00   .00   .00   .00   .00   .00   .00   .00   .00   .00   .00   .00   .00   .00   .00   .00
        .00   .00   .00   .00   .00   .00   .00   .00   .00   .00   .00   .00   .00   .00   .00   .00   .00   .00   .00   .00
        .00   .00   .00   .00   .00   .00   .00   .00   .00   .00   .00   .00   .00   .00   .00
0 16    .00   .00   .00   .00   .00   .00   .00   .00   .00   .00   .00   .00   .00   .00   .00   .00   .00   .00   .00   .00
        .00   .00   .00   .00   .00   .00   .00   .00   .00   .00   .00   .00   .00   .00   .00   .00   .00   .00   .00   .00
        .00   .00   .00   .00   .00   .00   .00   .00   .00   .00   .00   .00   .00   .00   .00
0 17    .00   .00   .00   .00   .00   .00   .00   .00   .00   .00   .00   .00   .00   .00   .00   .00   .00   .00   .00   .00
        .00   .00   .00   .00   .00   .00   .00   .00   .00   .00   .00   .00   .00   .00   .00   .00   .00   .00   .00   .00
        .00   .00   .00   .00   .00   .00   .00   .00   .00   .00   .00   .00   .00   .00   .00
0 18    .00   .00   .00   .00   .00   .00   .00   .00   .00   .00   .00   .00   .00   .00   .00   .00   .00   .00   .00   .00
        .00   .00   .00   .00   .00   .00   .00   .00   .00   .00   .00   .00   .00   .00   .00   .00   .00   .00   .00   .00
        .00   .00   .00   .00   .00   .00   .00   .00   .00   .00   .00   .00   .00   .00   .00
0 19    .00   .00   .00   .00   .00   .00   .00   .00   .00   .00   .00   .00   .00   .00   .00   .00   .00   .00   .00   .00
        .00   .00   .00   .00   .00   .00   .00   .00   .00   .00   .00   .00   .00   .00   .00   .00   .00   .00   .00   .00
        .00   .00   .00   .00   .00   .00   .00   .00   .00   .00   .00   .00   .00   .00   .00
0 20    .00   .00   .00   .00   .00   .00   .00   .00   .00   .00   .00   .00   .00   .00   .00   .00   .00   .00   .00   .00
        .00   .00   .00   .00   .00   .00   .00   .00   .00   .00   .01   .01   .01   .00   .00   .00   .00   .00   .00   .00
        .00   .00   .00   .00   .00   .00   .00   .00   .00   .00   .00   .00   .00   .00   .00
0 21    .00   .00   .00   .00   .00   .00   .00   .00   .00   .00   .00   .00   .00   .00   .00   .00   .00   .00   .00   .00
        .00   .00   .00   .00   .00   .00   .01   .01   .01   .01   .01   .01   .01   .01   .01   .01   .00   .00   .00   .00
        .00   .00   .00   .00   .00   .00   .00   .00   .00   .00   .00   .00   .00   .00   .00
0 22    .00   .00   .00   .00   .00   .00   .00   .00   .00   .00   .00   .00   .00   .00   .00   .00   .00   .00   .00   .00
        .00   .00   .00   .00   .01   .01   .01   .02   .02   .03   .03   .04   .03   .03   .03   .02   .01   .00   .00   .00
        .00   .00   .00   .00   .00   .00   .00   .00   .00   .00   .00   .00   .00   .00   .00
0 23    .00   .00   .00   .00   .00   .00   .00   .00   .00   .00   .00   .00   .00   .00   .00   .00   .00   .00   .00   .00
        .00   .00   .01   .01   .01   .02   .03   .04   .05   .06   .07   .07   .07   .06   .05   .05   .00   .00   .00   .00
        .00   .00   .00   .00   .00   .00   .00   .00   .00   .00   .00   .00   .00   .00   .00
0 24    .00   .00   .00   .00   .00   .00   .00   .00   .00   .00   .00   .00   .00   .00   .00   .00   .00   .00   .00   .00
        .00   .01   .01   .01   .02   .03   .04   .06   .08   .10   .12   .13   .12   .11   .09   .07   .00   .00   .00   .00
        .00   .00   .00   .00   .00   .00   .00   .00   .00   .00   .00   .00   .00   .00   .00
0 25    .00   .00   .00   .00   .00   .00   .00   .00   .00   .00   .00   .00   .00   .00   .00   .00   .00   .00   .00   .00
        .00   .01   .01   .02   .03   .04   .06   .09   .12   .16   .19   .21   .19   .16   .13   .10   .08   .06   .04   .02
        .01   .00   .00   .00   .00   .00   .00   .00   .00   .00   .00   .00   .00   .00   .00
0 26    .00   .00   .00   .00   .00   .00   .00   .00   .00   .00   .00   .00   .00   .00   .00   .00   .00   .00   .00   .00
        .00   .01   .01   .02   .03   .05   .08   .11   .16   .22   .28   .30   .28   .22   .17   .12   .09   .06   .04   .02
        .01   .01   .00   .00   .00   .00   .00   .00   .00   .00   .00   .00   .00   .00   .00
0 27    .00   .00   .00   .00   .00   .00   .00   .00   .00   .00   .00   .00   .00   .00   .00   .00   .00   .00   .00   .00
        .01   .01   .01   .02   .04   .06   .09   .14   .21   .31   .41   .48   .41   .30   .21   .15   .10   .07   .05   .03
        .02   .01   .00   .00   .00   .00   .00   .00   .00   .00   .00   .00   .00   .00   .00
0 28    .00   .00   .00   .00   .00   .00   .00   .00   .00   .00   .00   .00   .00   .00   .00   .00   .00   .00   .00   .00
        .01   .01   .02   .03   .04   .07   .10   .16   .26   .40   .62   .86   .63   .42   .27   .17   .11   .07   .05   .03
        .02   .01   .00   .00   .00   .00   .00   .00   .00   .00   .00   .00   .00   .00   .00
0 29    .00   .00   .00   .00   .00   .00   .00   .00   .00   .00   .00   .00   .00   .00   .00   .00   .00   .00   .00   .00
        .01   .01   .02   .03   .04   .07   .11   .18   .29   .49   .86  1.74   .87   .50   .30   .19   .11   .07   .05   .03
        .02   .01   .00   .00   .00   .00   .00   .00   .00   .00   .00   .00   .00   .00   .00
0 30    .00   .00   .00   .00   .00   .00   .00   .00   .00   .00   .00   .00   .00   .00   .00   .00   .00   .00   .00   .00
        .01   .01   .02   .03   .04   .07   .11   .17   .27   .42   .64   .87   .64   .43   .28   .18   .11   .07   .04   .03
        .02   .01   .00   .00   .00   .00   .00   .00   .00   .00   .00   .00   .00   .00   .00
0 31    .00   .00   .00   .00   .00   .00   .00   .00   .00   .00   .00   .00   .00   .00   .00   .00   .00   .00   .00   .00
        .01   .01   .01   .02   .04   .06   .10   .15   .22   .32   .43   .50   .43   .32   .22   .15   .10   .06   .04   .02
        .01   .01   .01   .00   .00   .00   .00   .00   .00   .00   .00   .00   .00   .00   .00
0 32    .00   .00   .00   .00   .00   .00   .00   .00   .00   .00   .00   .00   .00   .00   .00   .00   .00   .00   .00   .00
        .01   .01   .01   .02   .03   .05   .08   .11   .16   .22   .28   .31   .28   .22   .16   .11   .08   .05   .03   .02
        .01   .01   .00   .00   .00   .00   .00   .00   .00   .00   .00   .00   .00   .00   .00
0 33    .00   .00   .00   .00   .00   .00   .00   .00   .00   .00   .00   .00   .00   .00   .00   .00   .00   .00   .00   .00
        .00   .01   .01   .02   .03   .04   .06   .08   .11   .15   .18   .19   .18   .15   .12   .08   .06   .04   .03   .02
        .01   .01   .00   .00   .00   .00   .00   .00   .00   .00   .00   .00   .00   .00   .00
0 34    .00   .00   .00   .00   .00   .00   .00   .00   .00   .00   .00   .00   .00   .00   .00   .00   .00   .00   .00   .00
        .00   .01   .01   .01   .02   .03   .04   .06   .08   .10   .11   .12   .11   .10   .08   .06   .04   .03   .02   .01
        .01   .01   .00   .00   .00   .00   .00   .00   .00   .00   .00   .00   .00   .00   .00
0 35    .00   .00   .00   .00   .00   .00   .00   .00   .00   .00   .00   .00   .00   .00   .00   .00   .00   .00   .00   .00
        .00   .00   .01   .01   .02   .02   .03   .04   .05   .06   .07   .07   .07   .06   .05   .04   .03   .02   .01   .01
        .01   .00   .00   .00   .00   .00   .00   .00   .00   .00   .00   .00   .00   .00   .00
0 36    .00   .00   .00   .00   .00   .00   .00   .00   .00   .00   .00   .00   .00   .00   .00   .00   .00   .00   .00   .00
        .00   .00   .01   .01   .01   .02   .02   .03   .03   .04   .04   .05   .04   .04   .03   .03   .02   .01   .01   .01
        .00   .00   .00   .00   .00   .00   .00   .00   .00   .00   .00   .00   .00   .00   .00
0 37    .00   .00   .00   .00   .00   .00   .00   .00   .00   .00   .00   .00   .00   .00   .00   .00   .00   .00   .00   .00
        .00   .00   .00   .01   .01   .01   .01   .02   .02   .03   .03   .03   .03   .02   .02   .02   .01   .01   .01   .01
        .00   .00   .00   .00   .00   .00   .00   .00   .00   .00   .00   .00   .00   .00   .00
0 38    .00   .00   .00   .00   .00   .00   .00   .00   .00   .00   .00   .00   .00   .00   .00   .00   .00   .00   .00   .00
        .00   .00   .00   .00   .00   .01   .01   .01   .01   .02   .02   .02   .02   .02   .01   .01   .01   .01   .00   .00
        .00   .00   .00   .00   .00   .00   .00   .00   .00   .00   .00   .00   .00   .00   .00
0 39    .00   .00   .00   .00   .00   .00   .00   .00   .00   .00   .00   .00   .00   .00   .00   .00   .00   .00   .00   .00
        .00   .00   .00   .00   .00   .00   .01   .01   .01   .01   .01   .01   .01   .01   .01   .01   .01   .00   .00   .00
        .00   .00   .00   .00   .00   .00   .00   .00   .00   .00   .00   .00   .00   .00   .00
0 40    .00   .00   .00   .00   .00   .00   .00   .00   .00   .00   .00   .00   .00   .00   .00   .00   .00   .00   .00   .00
        .00   .00   .00   .00   .00   .00   .00   .00   .00   .01   .01   .01   .01   .01   .01   .00   .00   .00   .00   .00
        .00   .00   .00   .00   .00   .00   .00   .00   .00   .00   .00   .00   .00   .00   .00
0 41    .00   .00   .00   .00   .00   .00   .00   .00   .00   .00   .00   .00   .00   .00   .00   .00   .00   .00   .00   .00
        .00   .00   .00   .00   .00   .00   .00   .00   .00   .00   .00   .00   .00   .00   .00   .00   .00   .00   .00   .00
        .00   .00   .00   .00   .00   .00   .00   .00   .00   .00   .00   .00   .00   .00   .00
0 42    .00   .00   .00   .00   .00   .00   .00   .00   .00   .00   .00   .00   .00   .00   .00   .00   .00   .00   .00   .00
        .00   .00   .00   .00   .00   .00   .00   .00   .00   .00   .00   .00   .00   .00   .00   .00   .00   .00   .00   .00
        .00   .00   .00   .00   .00   .00   .00   .00   .00   .00   .00   .00   .00   .00   .00
0 43    .00   .00   .00   .00   .00   .00   .00   .00   .00   .00   .00   .00   .00   .00   .00   .00   .00   .00   .00   .00
        .00   .00   .00   .00   .00   .00   .00   .00   .00   .00   .00   .00   .00   .00   .00   .00   .00   .00   .00   .00
        .00   .00   .00   .00   .00   .00   .00   .00   .00   .00   .00   .00   .00   .00   .00
0 44    .00   .00   .00   .00   .00   .00   .00   .00   .00   .00   .00   .00   .00   .00   .00   .00   .00   .00   .00   .00
        .00   .00   .00   .00   .00   .00   .00   .00   .00   .00   .00   .00   .00   .00   .00   .00   .00   .00   .00   .00
        .00   .00   .00   .00   .00   .00   .00   .00   .00   .00   .00   .00   .00   .00   .00
0


                              VOLUMETRIC BUDGET FOR ENTIRE MODEL AT END OF TIME STEP 10 IN STRESS PERIOD  1
                              -----------------------------------------------------------------------------
0                   CUMULATIVE VOLUMES      L**3                                     RATES FOR THIS TIME STEP      L**3/T
                    ------------------                                               ------------------------

                          IN:                                                                    IN:
                          ---                                                                    ---
                            STORAGE =    20525.                                                    STORAGE =    .89196    
                      CONSTANT HEAD =    .00000                                              CONSTANT HEAD =    .00000    
                              WELLS =    .00000                                                      WELLS =    .00000    
                      RIVER LEAKAGE =    982.36                                              RIVER LEAKAGE =    .71044E-01
0                          TOTAL IN =    21507.                                                   TOTAL IN =    .96301    
0                        OUT:                                                                   OUT:
                         ----                                                                   ----
                            STORAGE =    .00000                                                    STORAGE =    .00000    
                      CONSTANT HEAD =    .00000                                              CONSTANT HEAD =    .00000    
                              WELLS =    21507.                                                      WELLS =    .96300    
                      RIVER LEAKAGE =    .00000                                              RIVER LEAKAGE =    .00000    
0                         TOTAL OUT =    21507.                                                  TOTAL OUT =    .96300    
0                          IN - OUT =    .52734E-01                                               IN - OUT =    .85831E-05
0               PERCENT DISCREPANCY =                 .00                              PERCENT DISCREPANCY =                 .00



0


          TIME SUMMARY AT END OF TIME STEP 10 IN STRESS PERIOD  1
                               SECONDS        MINUTES         HOURS          DAYS           YEARS
                           ---------------------------------------------------------------------------
      TIME STEP LENGTH         6750.25        112.504        1.87507        .781279E-01    .213903E-03
    STRESS PERIOD TIME         22333.7        372.228        6.20379        .258491        .707711E-03
 TOTAL SIMULATION TIME         22333.7        372.228        6.20379        .258491        .707711E-03
1
     6 ITERATIONS FOR TIME STEP  11 IN STRESS PERIOD  1
0MAXIMUM HEAD CHANGE FOR EACH ITERATION:
0 HEAD CHANGE LAYER,ROW,COL HEAD CHANGE LAYER,ROW,COL HEAD CHANGE LAYER,ROW,COL HEAD CHANGE LAYER,ROW,COL HEAD CHANGE LAYER,ROW,COL
 ------------------------------------------------------------------------------------------------------------------------------------
   -.3669E-01 (  1, 29, 32)  -.3920E-01 (  1, 29, 32)  -.1792E-01 (  1, 29, 32)  -.1969E-02 (  1, 26, 35)  -.3347E-03 (  1, 25, 37)
    .7083E-04 (  1, 25, 38)
0
0HEAD/DRAWDOWN PRINTOUT FLAG = 1     TOTAL BUDGET PRINTOUT FLAG = 1     CELL-BY-CELL FLOW TERM FLAG = 0
0OUTPUT FLAGS FOR ALL LAYERS ARE THE SAME:
   HEAD    DRAWDOWN  HEAD  DRAWDOWN
 PRINTOUT  PRINTOUT  SAVE    SAVE
 ----------------------------------
     0         1       0       0
1                  DRAWDOWN IN LAYER  1 AT END OF TIME STEP 11 IN STRESS PERIOD  1
           -----------------------------------------------------------------------

         1     2     3     4     5     6     7     8     9    10    11    12    13    14    15    16    17    18    19    20
        21    22    23    24    25    26    27    28    29    30    31    32    33    34    35    36    37    38    39    40
        41    42    43    44    45    46    47    48    49    50    51    52    53    54    55
 ................................................................................................................................
0  1    .00   .00   .00   .00   .00   .00   .00   .00   .00   .00   .00   .00   .00   .00   .00   .00   .00   .00   .00   .00
        .00   .00   .00   .00   .00   .00   .00   .00   .00   .00   .00   .00   .00   .00   .00   .00   .00   .00   .00   .00
        .00   .00   .00   .00   .00   .00   .00   .00   .00   .00   .00   .00   .00   .00   .00
0  2    .00   .00   .00   .00   .00   .00   .00   .00   .00   .00   .00   .00   .00   .00   .00   .00   .00   .00   .00   .00
        .00   .00   .00   .00   .00   .00   .00   .00   .00   .00   .00   .00   .00   .00   .00   .00   .00   .00   .00   .00
        .00   .00   .00   .00   .00   .00   .00   .00   .00   .00   .00   .00   .00   .00   .00
0  3    .00   .00   .00   .00   .00   .00   .00   .00   .00   .00   .00   .00   .00   .00   .00   .00   .00   .00   .00   .00
        .00   .00   .00   .00   .00   .00   .00   .00   .00   .00   .00   .00   .00   .00   .00   .00   .00   .00   .00   .00
        .00   .00   .00   .00   .00   .00   .00   .00   .00   .00   .00   .00   .00   .00   .00
0  4    .00   .00   .00   .00   .00   .00   .00   .00   .00   .00   .00   .00   .00   .00   .00   .00   .00   .00   .00   .00
        .00   .00   .00   .00   .00   .00   .00   .00   .00   .00   .00   .00   .00   .00   .00   .00   .00   .00   .00   .00
        .00   .00   .00   .00   .00   .00   .00   .00   .00   .00   .00   .00   .00   .00   .00
0  5    .00   .00   .00   .00   .00   .00   .00   .00   .00   .00   .00   .00   .00   .00   .00   .00   .00   .00   .00   .00
        .00   .00   .00   .00   .00   .00   .00   .00   .00   .00   .00   .00   .00   .00   .00   .00   .00   .00   .00   .00
        .00   .00   .00   .00   .00   .00   .00   .00   .00   .00   .00   .00   .00   .00   .00
0  6    .00   .00   .00   .00   .00   .00   .00   .00   .00   .00   .00   .00   .00   .00   .00   .00   .00   .00   .00   .00
        .00   .00   .00   .00   .00   .00   .00   .00   .00   .00   .00   .00   .00   .00   .00   .00   .00   .00   .00   .00
        .00   .00   .00   .00   .00   .00   .00   .00   .00   .00   .00   .00   .00   .00   .00
0  7    .00   .00   .00   .00   .00   .00   .00   .00   .00   .00   .00   .00   .00   .00   .00   .00   .00   .00   .00   .00
        .00   .00   .00   .00   .00   .00   .00   .00   .00   .00   .00   .00   .00   .00   .00   .00   .00   .00   .00   .00
        .00   .00   .00   .00   .00   .00   .00   .00   .00   .00   .00   .00   .00   .00   .00
0  8    .00   .00   .00   .00   .00   .00   .00   .00   .00   .00   .00   .00   .00   .00   .00   .00   .00   .00   .00   .00
        .00   .00   .00   .00   .00   .00   .00   .00   .00   .00   .00   .00   .00   .00   .00   .00   .00   .00   .00   .00
        .00   .00   .00   .00   .00   .00   .00   .00   .00   .00   .00   .00   .00   .00   .00
0  9    .00   .00   .00   .00   .00   .00   .00   .00   .00   .00   .00   .00   .00   .00   .00   .00   .00   .00   .00   .00
        .00   .00   .00   .00   .00   .00   .00   .00   .00   .00   .00   .00   .00   .00   .00   .00   .00   .00   .00   .00
        .00   .00   .00   .00   .00   .00   .00   .00   .00   .00   .00   .00   .00   .00   .00
0 10    .00   .00   .00   .00   .00   .00   .00   .00   .00   .00   .00   .00   .00   .00   .00   .00   .00   .00   .00   .00
        .00   .00   .00   .00   .00   .00   .00   .00   .00   .00   .00   .00   .00   .00   .00   .00   .00   .00   .00   .00
        .00   .00   .00   .00   .00   .00   .00   .00   .00   .00   .00   .00   .00   .00   .00
0 11    .00   .00   .00   .00   .00   .00   .00   .00   .00   .00   .00   .00   .00   .00   .00   .00   .00   .00   .00   .00
        .00   .00   .00   .00   .00   .00   .00   .00   .00   .00   .00   .00   .00   .00   .00   .00   .00   .00   .00   .00
        .00   .00   .00   .00   .00   .00   .00   .00   .00   .00   .00   .00   .00   .00   .00
0 12    .00   .00   .00   .00   .00   .00   .00   .00   .00   .00   .00   .00   .00   .00   .00   .00   .00   .00   .00   .00
        .00   .00   .00   .00   .00   .00   .00   .00   .00   .00   .00   .00   .00   .00   .00   .00   .00   .00   .00   .00
        .00   .00   .00   .00   .00   .00   .00   .00   .00   .00   .00   .00   .00   .00   .00
0 13    .00   .00   .00   .00   .00   .00   .00   .00   .00   .00   .00   .00   .00   .00   .00   .00   .00   .00   .00   .00
        .00   .00   .00   .00   .00   .00   .00   .00   .00   .00   .00   .00   .00   .00   .00   .00   .00   .00   .00   .00
        .00   .00   .00   .00   .00   .00   .00   .00   .00   .00   .00   .00   .00   .00   .00
0 14    .00   .00   .00   .00   .00   .00   .00   .00   .00   .00   .00   .00   .00   .00   .00   .00   .00   .00   .00   .00
        .00   .00   .00   .00   .00   .00   .00   .00   .00   .00   .00   .00   .00   .00   .00   .00   .00   .00   .00   .00
        .00   .00   .00   .00   .00   .00   .00   .00   .00   .00   .00   .00   .00   .00   .00
0 15    .00   .00   .00   .00   .00   .00   .00   .00   .00   .00   .00   .00   .00   .00   .00   .00   .00   .00   .00   .00
        .00   .00   .00   .00   .00   .00   .00   .00   .00   .00   .00   .00   .00   .00   .00   .00   .00   .00   .00   .00
        .00   .00   .00   .00   .00   .00   .00   .00   .00   .00   .00   .00   .00   .00   .00
0 16    .00   .00   .00   .00   .00   .00   .00   .00   .00   .00   .00   .00   .00   .00   .00   .00   .00   .00   .00   .00
        .00   .00   .00   .00   .00   .00   .00   .00   .00   .00   .00   .00   .00   .00   .00   .00   .00   .00   .00   .00
        .00   .00   .00   .00   .00   .00   .00   .00   .00   .00   .00   .00   .00   .00   .00
0 17    .00   .00   .00   .00   .00   .00   .00   .00   .00   .00   .00   .00   .00   .00   .00   .00   .00   .00   .00   .00
        .00   .00   .00   .00   .00   .00   .00   .00   .00   .00   .00   .00   .00   .00   .00   .00   .00   .00   .00   .00
        .00   .00   .00   .00   .00   .00   .00   .00   .00   .00   .00   .00   .00   .00   .00
0 18    .00   .00   .00   .00   .00   .00   .00   .00   .00   .00   .00   .00   .00   .00   .00   .00   .00   .00   .00   .00
        .00   .00   .00   .00   .00   .00   .00   .00   .00   .00   .00   .00   .00   .00   .00   .00   .00   .00   .00   .00
        .00   .00   .00   .00   .00   .00   .00   .00   .00   .00   .00   .00   .00   .00   .00
0 19    .00   .00   .00   .00   .00   .00   .00   .00   .00   .00   .00   .00   .00   .00   .00   .00   .00   .00   .00   .00
        .00   .00   .00   .00   .00   .00   .00   .00   .00   .01   .01   .01   .01   .01   .01   .00   .00   .00   .00   .00
        .00   .00   .00   .00   .00   .00   .00   .00   .00   .00   .00   .00   .00   .00   .00
0 20    .00   .00   .00   .00   .00   .00   .00   .00   .00   .00   .00   .00   .00   .00   .00   .00   .00   .00   .00   .00
        .00   .00   .00   .00   .00   .01   .01   .01   .01   .01   .01   .01   .01   .01   .01   .01   .01   .00   .00   .00
        .00   .00   .00   .00   .00   .00   .00   .00   .00   .00   .00   .00   .00   .00   .00
0 21    .00   .00   .00   .00   .00   .00   .00   .00   .00   .00   .00   .00   .00   .00   .00   .00   .00   .00   .00   .00
        .00   .00   .00   .01   .01   .01   .02   .02   .02   .03   .03   .03   .03   .03   .03   .02   .01   .00   .00   .00
        .00   .00   .00   .00   .00   .00   .00   .00   .00   .00   .00   .00   .00   .00   .00
0 22    .00   .00   .00   .00   .00   .00   .00   .00   .00   .00   .00   .00   .00   .00   .00   .00   .00   .00   .00   .00
        .00   .01   .01   .01   .02   .02   .03   .04   .05   .06   .07   .07   .07   .06   .05   .04   .02   .00   .00   .00
        .00   .00   .00   .00   .00   .00   .00   .00   .00   .00   .00   .00   .00   .00   .00
0 23    .00   .00   .00   .00   .00   .00   .00   .00   .00   .00   .00   .00   .00   .00   .00   .00   .00   .00   .00   .00
        .01   .01   .01   .02   .03   .04   .05   .07   .09   .11   .12   .12   .12   .11   .10   .09   .00   .00   .00   .00
        .00   .00   .00   .00   .00   .00   .00   .00   .00   .00   .00   .00   .00   .00   .00
0 24    .00   .00   .00   .00   .00   .00   .00   .00   .00   .00   .00   .00   .00   .00   .00   .00   .00   .00   .00   .01
        .01   .01   .02   .03   .04   .06   .07   .10   .13   .16   .18   .19   .19   .17   .14   .13   .00   .00   .00   .00
        .00   .00   .00   .00   .00   .00   .00   .00   .00   .00   .00   .00   .00   .00   .00
0 25    .00   .00   .00   .00   .00   .00   .00   .00   .00   .00   .00   .00   .00   .00   .00   .00   .00   .00   .00   .01
        .01   .02   .02   .03   .05   .07   .10   .14   .18   .23   .26   .28   .27   .23   .19   .16   .13   .10   .07   .05
        .02   .01   .01   .00   .00   .00   .00   .00   .00   .00   .00   .00   .00   .00   .00
0 26    .00   .00   .00   .00   .00   .00   .00   .00   .00   .00   .00   .00   .00   .00   .00   .00   .00   .00   .01   .01
        .01   .02   .03   .04   .06   .08   .12   .17   .23   .29   .36   .39   .36   .30   .24   .18   .14   .11   .08   .05
        .03   .02   .01   .00   .00   .00   .00   .00   .00   .00   .00   .00   .00   .00   .00
0 27    .00   .00   .00   .00   .00   .00   .00   .00   .00   .00   .00   .00   .00   .00   .00   .00   .00   .00   .01   .01
        .01   .02   .03   .04   .06   .09   .14   .20   .28   .39   .50   .57   .49   .38   .28   .21   .15   .11   .08   .06
        .04   .02   .01   .00   .00   .00   .00   .00   .00   .00   .00   .00   .00   .00   .00
0 28    .00   .00   .00   .00   .00   .00   .00   .00   .00   .00   .00   .00   .00   .00   .00   .00   .00   .00   .00   .01
        .02   .02   .03   .05   .07   .10   .15   .22   .33   .48   .70   .95   .72   .50   .35   .24   .17   .12   .08   .06
        .04   .02   .01   .01   .00   .00   .00   .00   .00   .00   .00   .00   .00   .00   .00
0 29    .00   .00   .00   .00   .00   .00   .00   .00   .00   .00   .00   .00   .00   .00   .00   .00   .00   .00   .01   .01
        .02   .02   .03   .05   .07   .11   .16   .24   .37   .57   .95  1.83   .96   .58   .38   .25   .17   .11   .08   .06
        .04   .02   .01   .01   .00   .00   .00   .00   .00   .00   .00   .00   .00   .00   .00
0 30    .00   .00   .00   .00   .00   .00   .00   .00   .00   .00   .00   .00   .00   .00   .00   .00   .00   .00   .01   .01
        .02   .02   .03   .05   .07   .11   .16   .24   .35   .51   .73   .96   .73   .51   .35   .24   .16   .11   .07   .05
        .04   .02   .01   .01   .00   .00   .00   .00   .00   .00   .00   .00   .00   .00   .00
0 31    .00   .00   .00   .00   .00   .00   .00   .00   .00   .00   .00   .00   .00   .00   .00   .00   .00   .00   .01   .01
        .02   .02   .03   .05   .07   .10   .14   .21   .29   .39   .51   .59   .51   .40   .29   .21   .15   .10   .07   .05
        .03   .02   .01   .01   .00   .00   .00   .00   .00   .00   .00   .00   .00   .00   .00
0 32    .00   .00   .00   .00   .00   .00   .00   .00   .00   .00   .00   .00   .00   .00   .00   .00   .00   .00   .00   .01
        .01   .02   .03   .04   .06   .09   .12   .17   .23   .29   .35   .38   .35   .29   .23   .17   .12   .09   .06   .04
        .03   .02   .01   .01   .00   .00   .00   .00   .00   .00   .00   .00   .00   .00   .00
0 33    .00   .00   .00   .00   .00   .00   .00   .00   .00   .00   .00   .00   .00   .00   .00   .00   .00   .00   .00   .01
        .01   .02   .02   .04   .05   .07   .10   .13   .17   .21   .24   .26   .24   .21   .17   .13   .10   .07   .05   .03
        .02   .02   .01   .01   .00   .00   .00   .00   .00   .00   .00   .00   .00   .00   .00
0 34    .00   .00   .00   .00   .00   .00   .00   .00   .00   .00   .00   .00   .00   .00   .00   .00   .00   .00   .00   .01
        .01   .02   .02   .03   .04   .06   .07   .10   .12   .15   .17   .17   .17   .15   .12   .10   .07   .06   .04   .03
        .02   .01   .01   .01   .00   .00   .00   .00   .00   .00   .00   .00   .00   .00   .00
0 35    .00   .00   .00   .00   .00   .00   .00   .00   .00   .00   .00   .00   .00   .00   .00   .00   .00   .00   .00   .01
        .01   .01   .02   .02   .03   .04   .06   .07   .09   .10   .11   .12   .11   .10   .09   .07   .06   .04   .03   .02
        .02   .01   .01   .01   .00   .00   .00   .00   .00   .00   .00   .00   .00   .00   .00
0 36    .00   .00   .00   .00   .00   .00   .00   .00   .00   .00   .00   .00   .00   .00   .00   .00   .00   .00   .00   .00
        .01   .01   .01   .02   .03   .03   .04   .05   .06   .07   .08   .08   .08   .07   .06   .05   .04   .03   .02   .02
        .01   .01   .01   .00   .00   .00   .00   .00   .00   .00   .00   .00   .00   .00   .00
0 37    .00   .00   .00   .00   .00   .00   .00   .00   .00   .00   .00   .00   .00   .00   .00   .00   .00   .00   .00   .00
        .00   .01   .01   .01   .02   .03   .03   .04   .04   .05   .05   .05   .05   .05   .04   .04   .03   .02   .02   .01
        .01   .01   .00   .00   .00   .00   .00   .00   .00   .00   .00   .00   .00   .00   .00
0 38    .00   .00   .00   .00   .00   .00   .00   .00   .00   .00   .00   .00   .00   .00   .00   .00   .00   .00   .00   .00
        .00   .00   .01   .01   .01   .02   .02   .03   .03   .04   .04   .04   .04   .03   .03   .03   .02   .02   .01   .01
        .01   .01   .00   .00   .00   .00   .00   .00   .00   .00   .00   .00   .00   .00   .00
0 39    .00   .00   .00   .00   .00   .00   .00   .00   .00   .00   .00   .00   .00   .00   .00   .00   .00   .00   .00   .00
        .00   .00   .00   .01   .01   .01   .01   .02   .02   .02   .03   .03   .03   .02   .02   .02   .02   .01   .01   .01
        .01   .00   .00   .00   .00   .00   .00   .00   .00   .00   .00   .00   .00   .00   .00
0 40    .00   .00   .00   .00   .00   .00   .00   .00   .00   .00   .00   .00   .00   .00   .00   .00   .00   .00   .00   .00
        .00   .00   .00   .00   .00   .01   .01   .01   .01   .02   .02   .02   .02   .02   .01   .01   .01   .01   .01   .01
        .00   .00   .00   .00   .00   .00   .00   .00   .00   .00   .00   .00   .00   .00   .00
0 41    .00   .00   .00   .00   .00   .00   .00   .00   .00   .00   .00   .00   .00   .00   .00   .00   .00   .00   .00   .00
        .00   .00   .00   .00   .00   .00   .01   .01   .01   .01   .01   .01   .01   .01   .01   .01   .01   .00   .00   .00
        .00   .00   .00   .00   .00   .00   .00   .00   .00   .00   .00   .00   .00   .00   .00
0 42    .00   .00   .00   .00   .00   .00   .00   .00   .00   .00   .00   .00   .00   .00   .00   .00   .00   .00   .00   .00
        .00   .00   .00   .00   .00   .00   .00   .00   .01   .00   .00   .00   .00   .01   .01   .00   .00   .00   .00   .00
        .00   .00   .00   .00   .00   .00   .00   .00   .00   .00   .00   .00   .00   .00   .00
0 43    .00   .00   .00   .00   .00   .00   .00   .00   .00   .00   .00   .00   .00   .00   .00   .00   .00   .00   .00   .00
        .00   .00   .00   .00   .00   .00   .00   .00   .00   .00   .00   .00   .00   .00   .00   .00   .00   .00   .00   .00
        .00   .00   .00   .00   .00   .00   .00   .00   .00   .00   .00   .00   .00   .00   .00
0 44    .00   .00   .00   .00   .00   .00   .00   .00   .00   .00   .00   .00   .00   .00   .00   .00   .00   .00   .00   .00
        .00   .00   .00   .00   .00   .00   .00   .00   .00   .00   .00   .00   .00   .00   .00   .00   .00   .00   .00   .00
        .00   .00   .00   .00   .00   .00   .00   .00   .00   .00   .00   .00   .00   .00   .00
0


                              VOLUMETRIC BUDGET FOR ENTIRE MODEL AT END OF TIME STEP 11 IN STRESS PERIOD  1
                              -----------------------------------------------------------------------------
0                   CUMULATIVE VOLUMES      L**3                                     RATES FOR THIS TIME STEP      L**3/T
                    ------------------                                               ------------------------

                          IN:                                                                    IN:
                          ---                                                                    ---
                            STORAGE =    28838.                                                    STORAGE =    .87089    
                      CONSTANT HEAD =    .00000                                              CONSTANT HEAD =    .00000    
                              WELLS =    .00000                                                      WELLS =    .00000    
                      RIVER LEAKAGE =    1861.7                                              RIVER LEAKAGE =    .92129E-01
0                          TOTAL IN =    30699.                                                   TOTAL IN =    .96302    
0                        OUT:                                                                   OUT:
                         ----                                                                   ----
                            STORAGE =    .00000                                                    STORAGE =    .00000    
                      CONSTANT HEAD =    .00000                                              CONSTANT HEAD =    .00000    
                              WELLS =    30699.                                                      WELLS =    .96300    
                      RIVER LEAKAGE =    .00000                                              RIVER LEAKAGE =    .00000    
0                         TOTAL OUT =    30699.                                                  TOTAL OUT =    .96300    
0                          IN - OUT =    .20898                                                   IN - OUT =    .16451E-04
0               PERCENT DISCREPANCY =                 .00                              PERCENT DISCREPANCY =                 .00



0


          TIME SUMMARY AT END OF TIME STEP 11 IN STRESS PERIOD  1
                               SECONDS        MINUTES         HOURS          DAYS           YEARS
                           ---------------------------------------------------------------------------
      TIME STEP LENGTH         9544.86        159.081        2.65135        .110473        .302458E-03
    STRESS PERIOD TIME         31878.5        531.309        8.85514        .368964        .101017E-02
 TOTAL SIMULATION TIME         31878.5        531.309        8.85514        .368964        .101017E-02
1
     7 ITERATIONS FOR TIME STEP  12 IN STRESS PERIOD  1
0MAXIMUM HEAD CHANGE FOR EACH ITERATION:
0 HEAD CHANGE LAYER,ROW,COL HEAD CHANGE LAYER,ROW,COL HEAD CHANGE LAYER,ROW,COL HEAD CHANGE LAYER,ROW,COL HEAD CHANGE LAYER,ROW,COL
 ------------------------------------------------------------------------------------------------------------------------------------
   -.2823E-01 (  1, 24, 32)  -.3802E-01 (  1, 29, 32)  -.2446E-01 (  1, 29, 32)  -.3959E-02 (  1, 28, 34)  -.7097E-03 (  1, 24, 36)
    .1439E-03 (  1, 25, 38)   .4073E-04 (  1, 27, 39)
0
0HEAD/DRAWDOWN PRINTOUT FLAG = 1     TOTAL BUDGET PRINTOUT FLAG = 1     CELL-BY-CELL FLOW TERM FLAG = 0
0OUTPUT FLAGS FOR ALL LAYERS ARE THE SAME:
   HEAD    DRAWDOWN  HEAD  DRAWDOWN
 PRINTOUT  PRINTOUT  SAVE    SAVE
 ----------------------------------
     0         1       0       0
1                  DRAWDOWN IN LAYER  1 AT END OF TIME STEP 12 IN STRESS PERIOD  1
           -----------------------------------------------------------------------

         1     2     3     4     5     6     7     8     9    10    11    12    13    14    15    16    17    18    19    20
        21    22    23    24    25    26    27    28    29    30    31    32    33    34    35    36    37    38    39    40
        41    42    43    44    45    46    47    48    49    50    51    52    53    54    55
 ................................................................................................................................
0  1    .00   .00   .00   .00   .00   .00   .00   .00   .00   .00   .00   .00   .00   .00   .00   .00   .00   .00   .00   .00
        .00   .00   .00   .00   .00   .00   .00   .00   .00   .00   .00   .00   .00   .00   .00   .00   .00   .00   .00   .00
        .00   .00   .00   .00   .00   .00   .00   .00   .00   .00   .00   .00   .00   .00   .00
0  2    .00   .00   .00   .00   .00   .00   .00   .00   .00   .00   .00   .00   .00   .00   .00   .00   .00   .00   .00   .00
        .00   .00   .00   .00   .00   .00   .00   .00   .00   .00   .00   .00   .00   .00   .00   .00   .00   .00   .00   .00
        .00   .00   .00   .00   .00   .00   .00   .00   .00   .00   .00   .00   .00   .00   .00
0  3    .00   .00   .00   .00   .00   .00   .00   .00   .00   .00   .00   .00   .00   .00   .00   .00   .00   .00   .00   .00
        .00   .00   .00   .00   .00   .00   .00   .00   .00   .00   .00   .00   .00   .00   .00   .00   .00   .00   .00   .00
        .00   .00   .00   .00   .00   .00   .00   .00   .00   .00   .00   .00   .00   .00   .00
0  4    .00   .00   .00   .00   .00   .00   .00   .00   .00   .00   .00   .00   .00   .00   .00   .00   .00   .00   .00   .00
        .00   .00   .00   .00   .00   .00   .00   .00   .00   .00   .00   .00   .00   .00   .00   .00   .00   .00   .00   .00
        .00   .00   .00   .00   .00   .00   .00   .00   .00   .00   .00   .00   .00   .00   .00
0  5    .00   .00   .00   .00   .00   .00   .00   .00   .00   .00   .00   .00   .00   .00   .00   .00   .00   .00   .00   .00
        .00   .00   .00   .00   .00   .00   .00   .00   .00   .00   .00   .00   .00   .00   .00   .00   .00   .00   .00   .00
        .00   .00   .00   .00   .00   .00   .00   .00   .00   .00   .00   .00   .00   .00   .00
0  6    .00   .00   .00   .00   .00   .00   .00   .00   .00   .00   .00   .00   .00   .00   .00   .00   .00   .00   .00   .00
        .00   .00   .00   .00   .00   .00   .00   .00   .00   .00   .00   .00   .00   .00   .00   .00   .00   .00   .00   .00
        .00   .00   .00   .00   .00   .00   .00   .00   .00   .00   .00   .00   .00   .00   .00
0  7    .00   .00   .00   .00   .00   .00   .00   .00   .00   .00   .00   .00   .00   .00   .00   .00   .00   .00   .00   .00
        .00   .00   .00   .00   .00   .00   .00   .00   .00   .00   .00   .00   .00   .00   .00   .00   .00   .00   .00   .00
        .00   .00   .00   .00   .00   .00   .00   .00   .00   .00   .00   .00   .00   .00   .00
0  8    .00   .00   .00   .00   .00   .00   .00   .00   .00   .00   .00   .00   .00   .00   .00   .00   .00   .00   .00   .00
        .00   .00   .00   .00   .00   .00   .00   .00   .00   .00   .00   .00   .00   .00   .00   .00   .00   .00   .00   .00
        .00   .00   .00   .00   .00   .00   .00   .00   .00   .00   .00   .00   .00   .00   .00
0  9    .00   .00   .00   .00   .00   .00   .00   .00   .00   .00   .00   .00   .00   .00   .00   .00   .00   .00   .00   .00
        .00   .00   .00   .00   .00   .00   .00   .00   .00   .00   .00   .00   .00   .00   .00   .00   .00   .00   .00   .00
        .00   .00   .00   .00   .00   .00   .00   .00   .00   .00   .00   .00   .00   .00   .00
0 10    .00   .00   .00   .00   .00   .00   .00   .00   .00   .00   .00   .00   .00   .00   .00   .00   .00   .00   .00   .00
        .00   .00   .00   .00   .00   .00   .00   .00   .00   .00   .00   .00   .00   .00   .00   .00   .00   .00   .00   .00
        .00   .00   .00   .00   .00   .00   .00   .00   .00   .00   .00   .00   .00   .00   .00
0 11    .00   .00   .00   .00   .00   .00   .00   .00   .00   .00   .00   .00   .00   .00   .00   .00   .00   .00   .00   .00
        .00   .00   .00   .00   .00   .00   .00   .00   .00   .00   .00   .00   .00   .00   .00   .00   .00   .00   .00   .00
        .00   .00   .00   .00   .00   .00   .00   .00   .00   .00   .00   .00   .00   .00   .00
0 12    .00   .00   .00   .00   .00   .00   .00   .00   .00   .00   .00   .00   .00   .00   .00   .00   .00   .00   .00   .00
        .00   .00   .00   .00   .00   .00   .00   .00   .00   .00   .00   .00   .00   .00   .00   .00   .00   .00   .00   .00
        .00   .00   .00   .00   .00   .00   .00   .00   .00   .00   .00   .00   .00   .00   .00
0 13    .00   .00   .00   .00   .00   .00   .00   .00   .00   .00   .00   .00   .00   .00   .00   .00   .00   .00   .00   .00
        .00   .00   .00   .00   .00   .00   .00   .00   .00   .00   .00   .00   .00   .00   .00   .00   .00   .00   .00   .00
        .00   .00   .00   .00   .00   .00   .00   .00   .00   .00   .00   .00   .00   .00   .00
0 14    .00   .00   .00   .00   .00   .00   .00   .00   .00   .00   .00   .00   .00   .00   .00   .00   .00   .00   .00   .00
        .00   .00   .00   .00   .00   .00   .00   .00   .00   .00   .00   .00   .00   .00   .00   .00   .00   .00   .00   .00
        .00   .00   .00   .00   .00   .00   .00   .00   .00   .00   .00   .00   .00   .00   .00
0 15    .00   .00   .00   .00   .00   .00   .00   .00   .00   .00   .00   .00   .00   .00   .00   .00   .00   .00   .00   .00
        .00   .00   .00   .00   .00   .00   .00   .00   .00   .00   .00   .00   .00   .00   .00   .00   .00   .00   .00   .00
        .00   .00   .00   .00   .00   .00   .00   .00   .00   .00   .00   .00   .00   .00   .00
0 16    .00   .00   .00   .00   .00   .00   .00   .00   .00   .00   .00   .00   .00   .00   .00   .00   .00   .00   .00   .00
        .00   .00   .00   .00   .00   .00   .00   .00   .00   .00   .00   .00   .00   .00   .00   .00   .00   .00   .00   .00
        .00   .00   .00   .00   .00   .00   .00   .00   .00   .00   .00   .00   .00   .00   .00
0 17    .00   .00   .00   .00   .00   .00   .00   .00   .00   .00   .00   .00   .00   .00   .00   .00   .00   .00   .00   .00
        .00   .00   .00   .00   .00   .00   .00   .00   .00   .00   .00   .00   .00   .00   .00   .00   .00   .00   .00   .00
        .00   .00   .00   .00   .00   .00   .00   .00   .00   .00   .00   .00   .00   .00   .00
0 18    .00   .00   .00   .00   .00   .00   .00   .00   .00   .00   .00   .00   .00   .00   .00   .00   .00   .00   .00   .00
        .00   .00   .00   .00   .00   .00   .00   .01   .01   .01   .01   .01   .01   .01   .01   .01   .00   .00   .00   .00
        .00   .00   .00   .00   .00   .00   .00   .00   .00   .00   .00   .00   .00   .00   .00
0 19    .00   .00   .00   .00   .00   .00   .00   .00   .00   .00   .00   .00   .00   .00   .00   .00   .00   .00   .00   .00
        .00   .00   .00   .00   .01   .01   .01   .01   .01   .02   .02   .02   .02   .02   .02   .01   .01   .00   .00   .00
        .00   .00   .00   .00   .00   .00   .00   .00   .00   .00   .00   .00   .00   .00   .00
0 20    .00   .00   .00   .00   .00   .00   .00   .00   .00   .00   .00   .00   .00   .00   .00   .00   .00   .00   .00   .00
        .00   .00   .01   .01   .01   .01   .02   .02   .03   .03   .03   .03   .03   .03   .03   .03   .02   .00   .00   .00
        .00   .00   .00   .00   .00   .00   .00   .00   .00   .00   .00   .00   .00   .00   .00
0 21    .00   .00   .00   .00   .00   .00   .00   .00   .00   .00   .00   .00   .00   .00   .00   .00   .00   .00   .00   .00
        .01   .01   .01   .02   .02   .03   .03   .04   .05   .06   .06   .06   .06   .06   .05   .05   .03   .00   .00   .00
        .00   .00   .00   .00   .00   .00   .00   .00   .00   .00   .00   .00   .00   .00   .00
0 22    .00   .00   .00   .00   .00   .00   .00   .00   .00   .00   .00   .00   .00   .00   .00   .00   .00   .00   .01   .01
        .01   .01   .02   .03   .04   .05   .06   .07   .09   .10   .12   .12   .12   .11   .10   .08   .05   .00   .00   .00
        .00   .00   .00   .00   .00   .00   .00   .00   .00   .00   .00   .00   .00   .00   .00
0 23    .00   .00   .00   .00   .00   .00   .00   .00   .00   .00   .00   .00   .00   .00   .00   .00   .00   .01   .01   .01
        .02   .02   .03   .04   .06   .08   .09   .12   .14   .16   .18   .19   .19   .17   .16   .15   .00   .00   .00   .00
        .00   .00   .00   .00   .00   .00   .00   .00   .00   .00   .00   .00   .00   .00   .00
0 24    .00   .00   .00   .00   .00   .00   .00   .00   .00   .00   .00   .00   .00   .00   .00   .00   .00   .01   .01   .01
        .02   .03   .04   .05   .07   .10   .12   .15   .19   .23   .26   .27   .26   .24   .21   .19   .00   .00   .00   .00
        .00   .00   .00   .00   .00   .00   .00   .00   .00   .00   .00   .00   .00   .00   .00
0 25    .00   .00   .00   .00   .00   .00   .00   .00   .00   .00   .00   .00   .00   .00   .00   .00   .01   .01   .01   .02
        .02   .03   .04   .06   .08   .11   .15   .20   .25   .30   .35   .36   .35   .31   .27   .23   .20   .17   .13   .09
        .05   .03   .02   .01   .00   .00   .00   .00   .00   .00   .00   .00   .00   .00   .00
0 26    .00   .00   .00   .00   .00   .00   .00   .00   .00   .00   .00   .00   .00   .00   .00   .00   .01   .01   .01   .02
        .03   .04   .05   .07   .09   .13   .17   .23   .30   .37   .44   .47   .44   .38   .32   .26   .21   .17   .13   .10
        .06   .04   .02   .01   .01   .00   .00   .00   .00   .00   .00   .00   .00   .00   .00
0 27    .00   .00   .00   .00   .00   .00   .00   .00   .00   .00   .00   .00   .00   .00   .00   .00   .00   .01   .02   .02
        .03   .04   .05   .07   .10   .14   .20   .27   .36   .47   .59   .65   .58   .47   .36   .29   .22   .17   .14   .10
        .07   .04   .02   .01   .01   .00   .00   .00   .00   .00   .00   .00   .00   .00   .00
0 28    .00   .00   .00   .00   .00   .00   .00   .00   .00   .00   .00   .00   .00   .00   .00   .00   .00   .00   .00   .03
        .03   .04   .06   .08   .11   .15   .21   .29   .41   .57   .79  1.04   .81   .59   .43   .31   .23   .17   .13   .10
        .07   .05   .03   .02   .01   .00   .00   .00   .00   .00   .00   .00   .00   .00   .00
0 29    .00   .00   .00   .00   .00   .00   .00   .00   .00   .00   .00   .00   .00   .00   .00   .00   .00   .00   .03   .03
        .04   .05   .06   .08   .12   .16   .22   .31   .45   .66  1.05  1.93  1.06   .67   .46   .33   .23   .17   .13   .10
        .07   .05   .03   .02   .01   .00   .00   .00   .00   .00   .00   .00   .00   .00   .00
0 30    .00   .00   .00   .00   .00   .00   .00   .00   .00   .00   .00   .00   .00   .00   .00   .00   .00   .00   .03   .03
        .04   .05   .06   .08   .12   .16   .22   .30   .42   .59   .82  1.06   .82   .60   .43   .31   .23   .16   .12   .09
        .06   .05   .03   .02   .01   .01   .00   .00   .00   .00   .00   .00   .00   .00   .00
0 31    .00   .00   .00   .00   .00   .00   .00   .00   .00   .00   .00   .00   .00   .00   .00   .00   .00   .00   .03   .03
        .04   .04   .06   .08   .11   .15   .20   .27   .36   .48   .60   .68   .60   .48   .37   .28   .21   .15   .11   .08
        .06   .04   .03   .02   .01   .01   .00   .00   .00   .00   .00   .00   .00   .00   .00
0 32    .00   .00   .00   .00   .00   .00   .00   .00   .00   .00   .00   .00   .00   .00   .00   .00   .00   .00   .00   .03
        .03   .04   .05   .07   .10   .13   .18   .23   .30   .37   .43   .47   .43   .37   .30   .23   .18   .13   .10   .07
        .05   .04   .03   .02   .01   .01   .00   .00   .00   .00   .00   .00   .00   .00   .00
0 33    .00   .00   .00   .00   .00   .00   .00   .00   .00   .00   .00   .00   .00   .00   .00   .00   .00   .00   .00   .03
        .03   .04   .05   .07   .09   .11   .15   .19   .23   .28   .31   .33   .32   .28   .23   .19   .15   .11   .09   .06
        .05   .03   .02   .02   .01   .01   .00   .00   .00   .00   .00   .00   .00   .00   .00
0 34    .00   .00   .00   .00   .00   .00   .00   .00   .00   .00   .00   .00   .00   .00   .00   .00   .00   .00   .00   .02
        .03   .03   .04   .06   .07   .09   .12   .15   .18   .21   .23   .24   .23   .21   .18   .15   .12   .09   .07   .05
        .04   .03   .02   .02   .01   .01   .00   .00   .00   .00   .00   .00   .00   .00   .00
0 35    .00   .00   .00   .00   .00   .00   .00   .00   .00   .00   .00   .00   .00   .00   .00   .00   .00   .00   .01   .02
        .02   .03   .04   .05   .06   .08   .10   .12   .14   .15   .17   .17   .17   .15   .14   .11   .09   .07   .06   .04
        .03   .03   .02   .01   .01   .01   .00   .00   .00   .00   .00   .00   .00   .00   .00
0 36    .00   .00   .00   .00   .00   .00   .00   .00   .00   .00   .00   .00   .00   .00   .00   .00   .00   .00   .01   .01
        .02   .02   .03   .04   .05   .06   .08   .09   .10   .12   .12   .13   .12   .11   .10   .09   .07   .06   .05   .04
        .03   .02   .02   .01   .01   .01   .00   .00   .00   .00   .00   .00   .00   .00   .00
0 37    .00   .00   .00   .00   .00   .00   .00   .00   .00   .00   .00   .00   .00   .00   .00   .00   .00   .00   .00   .01
        .01   .02   .02   .03   .04   .05   .06   .07   .08   .09   .09   .09   .09   .08   .08   .07   .06   .05   .04   .03
        .02   .02   .01   .01   .01   .01   .00   .00   .00   .00   .00   .00   .00   .00   .00
0 38    .00   .00   .00   .00   .00   .00   .00   .00   .00   .00   .00   .00   .00   .00   .00   .00   .00   .00   .00   .01
        .01   .01   .02   .02   .03   .04   .05   .06   .06   .07   .07   .07   .07   .06   .06   .05   .04   .04   .03   .02
        .02   .01   .01   .01   .01   .01   .00   .00   .00   .00   .00   .00   .00   .00   .00
0 39    .00   .00   .00   .00   .00   .00   .00   .00   .00   .00   .00   .00   .00   .00   .00   .00   .00   .00   .00   .01
        .01   .01   .01   .01   .02   .03   .03   .04   .04   .05   .05   .05   .05   .05   .04   .04   .03   .03   .02   .02
        .01   .01   .01   .01   .01   .01   .00   .00   .00   .00   .00   .00   .00   .00   .00
0 40    .00   .00   .00   .00   .00   .00   .00   .00   .00   .00   .00   .00   .00   .00   .00   .00   .00   .00   .00   .00
        .00   .01   .01   .01   .01   .02   .02   .03   .03   .04   .04   .04   .04   .04   .03   .03   .02   .02   .02   .01
        .01   .01   .01   .01   .01   .00   .00   .00   .00   .00   .00   .00   .00   .00   .00
0 41    .00   .00   .00   .00   .00   .00   .00   .00   .00   .00   .00   .00   .00   .00   .00   .00   .00   .00   .00   .00
        .00   .00   .01   .01   .01   .01   .02   .02   .02   .03   .03   .03   .03   .03   .02   .02   .02   .01   .01   .01
        .01   .01   .01   .01   .00   .00   .00   .00   .00   .00   .00   .00   .00   .00   .00
0 42    .00   .00   .00   .00   .00   .00   .00   .00   .00   .00   .00   .00   .00   .00   .00   .00   .00   .00   .00   .00
        .00   .00   .00   .01   .01   .01   .01   .01   .02   .00   .00   .00   .00   .02   .02   .01   .01   .01   .01   .01
        .01   .01   .00   .00   .00   .00   .00   .00   .00   .00   .00   .00   .00   .00   .00
0 43    .00   .00   .00   .00   .00   .00   .00   .00   .00   .00   .00   .00   .00   .00   .00   .00   .00   .00   .00   .00
        .00   .00   .00   .00   .01   .01   .00   .00   .00   .00   .00   .00   .00   .00   .01   .01   .01   .01   .01   .01
        .01   .00   .00   .00   .00   .00   .00   .00   .00   .00   .00   .00   .00   .00   .00
0 44    .00   .00   .00   .00   .00   .00   .00   .00   .00   .00   .00   .00   .00   .00   .00   .00   .00   .00   .00   .00
        .00   .00   .00   .00   .00   .00   .00   .00   .00   .00   .00   .00   .00   .00   .01   .01   .00   .00   .00   .00
        .00   .00   .00   .00   .00   .00   .00   .00   .00   .00   .00   .00   .00   .00   .00
0


                              VOLUMETRIC BUDGET FOR ENTIRE MODEL AT END OF TIME STEP 12 IN STRESS PERIOD  1
                              -----------------------------------------------------------------------------
0                   CUMULATIVE VOLUMES      L**3                                     RATES FOR THIS TIME STEP      L**3/T
                    ------------------                                               ------------------------

                          IN:                                                                    IN:
                          ---                                                                    ---
                            STORAGE =    40249.                                                    STORAGE =    .84552    
                      CONSTANT HEAD =    .00000                                              CONSTANT HEAD =    .00000    
                              WELLS =    .00000                                                      WELLS =    .00000    
                      RIVER LEAKAGE =    3447.1                                              RIVER LEAKAGE =    .11747    
0                          TOTAL IN =    43696.                                                   TOTAL IN =    .96299    
0                        OUT:                                                                   OUT:
                         ----                                                                   ----
                            STORAGE =    .00000                                                    STORAGE =    .00000    
                      CONSTANT HEAD =    .00000                                              CONSTANT HEAD =    .00000    
                              WELLS =    43696.                                                      WELLS =    .96300    
                      RIVER LEAKAGE =    .00000                                              RIVER LEAKAGE =    .00000    
0                         TOTAL OUT =    43696.                                                  TOTAL OUT =    .96300    
0                          IN - OUT =    .66406E-01                                               IN - OUT =   -.10431E-04
0               PERCENT DISCREPANCY =                 .00                              PERCENT DISCREPANCY =                -.00



0


          TIME SUMMARY AT END OF TIME STEP 12 IN STRESS PERIOD  1
                               SECONDS        MINUTES         HOURS          DAYS           YEARS
                           ---------------------------------------------------------------------------
      TIME STEP LENGTH         13496.4        224.941        3.74901        .156209        .427676E-03
    STRESS PERIOD TIME         45374.9        756.249        12.6042        .525173        .143785E-02
 TOTAL SIMULATION TIME         45374.9        756.249        12.6042        .525173        .143785E-02
1
     9 ITERATIONS FOR TIME STEP  13 IN STRESS PERIOD  1
0MAXIMUM HEAD CHANGE FOR EACH ITERATION:
0 HEAD CHANGE LAYER,ROW,COL HEAD CHANGE LAYER,ROW,COL HEAD CHANGE LAYER,ROW,COL HEAD CHANGE LAYER,ROW,COL HEAD CHANGE LAYER,ROW,COL
 ------------------------------------------------------------------------------------------------------------------------------------
   -.2825E-01 (  1, 23, 33)  -.3565E-01 (  1, 26, 32)  -.3086E-01 (  1, 29, 33)  -.7462E-02 (  1, 30, 32)  -.1478E-02 (  1, 24, 36)
   -.4896E-03 (  1, 39, 46)  -.1159E-03 (  1, 38, 45)  -.1449E-03 (  1, 39, 46)  -.1984E-04 (  1, 35, 44)
0
0HEAD/DRAWDOWN PRINTOUT FLAG = 1     TOTAL BUDGET PRINTOUT FLAG = 1     CELL-BY-CELL FLOW TERM FLAG = 0
0OUTPUT FLAGS FOR ALL LAYERS ARE THE SAME:
   HEAD    DRAWDOWN  HEAD  DRAWDOWN
 PRINTOUT  PRINTOUT  SAVE    SAVE
 ----------------------------------
     0         1       0       0
1                  DRAWDOWN IN LAYER  1 AT END OF TIME STEP 13 IN STRESS PERIOD  1
           -----------------------------------------------------------------------

         1     2     3     4     5     6     7     8     9    10    11    12    13    14    15    16    17    18    19    20
        21    22    23    24    25    26    27    28    29    30    31    32    33    34    35    36    37    38    39    40
        41    42    43    44    45    46    47    48    49    50    51    52    53    54    55
 ................................................................................................................................
0  1    .00   .00   .00   .00   .00   .00   .00   .00   .00   .00   .00   .00   .00   .00   .00   .00   .00   .00   .00   .00
        .00   .00   .00   .00   .00   .00   .00   .00   .00   .00   .00   .00   .00   .00   .00   .00   .00   .00   .00   .00
        .00   .00   .00   .00   .00   .00   .00   .00   .00   .00   .00   .00   .00   .00   .00
0  2    .00   .00   .00   .00   .00   .00   .00   .00   .00   .00   .00   .00   .00   .00   .00   .00   .00   .00   .00   .00
        .00   .00   .00   .00   .00   .00   .00   .00   .00   .00   .00   .00   .00   .00   .00   .00   .00   .00   .00   .00
        .00   .00   .00   .00   .00   .00   .00   .00   .00   .00   .00   .00   .00   .00   .00
0  3    .00   .00   .00   .00   .00   .00   .00   .00   .00   .00   .00   .00   .00   .00   .00   .00   .00   .00   .00   .00
        .00   .00   .00   .00   .00   .00   .00   .00   .00   .00   .00   .00   .00   .00   .00   .00   .00   .00   .00   .00
        .00   .00   .00   .00   .00   .00   .00   .00   .00   .00   .00   .00   .00   .00   .00
0  4    .00   .00   .00   .00   .00   .00   .00   .00   .00   .00   .00   .00   .00   .00   .00   .00   .00   .00   .00   .00
        .00   .00   .00   .00   .00   .00   .00   .00   .00   .00   .00   .00   .00   .00   .00   .00   .00   .00   .00   .00
        .00   .00   .00   .00   .00   .00   .00   .00   .00   .00   .00   .00   .00   .00   .00
0  5    .00   .00   .00   .00   .00   .00   .00   .00   .00   .00   .00   .00   .00   .00   .00   .00   .00   .00   .00   .00
        .00   .00   .00   .00   .00   .00   .00   .00   .00   .00   .00   .00   .00   .00   .00   .00   .00   .00   .00   .00
        .00   .00   .00   .00   .00   .00   .00   .00   .00   .00   .00   .00   .00   .00   .00
0  6    .00   .00   .00   .00   .00   .00   .00   .00   .00   .00   .00   .00   .00   .00   .00   .00   .00   .00   .00   .00
        .00   .00   .00   .00   .00   .00   .00   .00   .00   .00   .00   .00   .00   .00   .00   .00   .00   .00   .00   .00
        .00   .00   .00   .00   .00   .00   .00   .00   .00   .00   .00   .00   .00   .00   .00
0  7    .00   .00   .00   .00   .00   .00   .00   .00   .00   .00   .00   .00   .00   .00   .00   .00   .00   .00   .00   .00
        .00   .00   .00   .00   .00   .00   .00   .00   .00   .00   .00   .00   .00   .00   .00   .00   .00   .00   .00   .00
        .00   .00   .00   .00   .00   .00   .00   .00   .00   .00   .00   .00   .00   .00   .00
0  8    .00   .00   .00   .00   .00   .00   .00   .00   .00   .00   .00   .00   .00   .00   .00   .00   .00   .00   .00   .00
        .00   .00   .00   .00   .00   .00   .00   .00   .00   .00   .00   .00   .00   .00   .00   .00   .00   .00   .00   .00
        .00   .00   .00   .00   .00   .00   .00   .00   .00   .00   .00   .00   .00   .00   .00
0  9    .00   .00   .00   .00   .00   .00   .00   .00   .00   .00   .00   .00   .00   .00   .00   .00   .00   .00   .00   .00
        .00   .00   .00   .00   .00   .00   .00   .00   .00   .00   .00   .00   .00   .00   .00   .00   .00   .00   .00   .00
        .00   .00   .00   .00   .00   .00   .00   .00   .00   .00   .00   .00   .00   .00   .00
0 10    .00   .00   .00   .00   .00   .00   .00   .00   .00   .00   .00   .00   .00   .00   .00   .00   .00   .00   .00   .00
        .00   .00   .00   .00   .00   .00   .00   .00   .00   .00   .00   .00   .00   .00   .00   .00   .00   .00   .00   .00
        .00   .00   .00   .00   .00   .00   .00   .00   .00   .00   .00   .00   .00   .00   .00
0 11    .00   .00   .00   .00   .00   .00   .00   .00   .00   .00   .00   .00   .00   .00   .00   .00   .00   .00   .00   .00
        .00   .00   .00   .00   .00   .00   .00   .00   .00   .00   .00   .00   .00   .00   .00   .00   .00   .00   .00   .00
        .00   .00   .00   .00   .00   .00   .00   .00   .00   .00   .00   .00   .00   .00   .00
0 12    .00   .00   .00   .00   .00   .00   .00   .00   .00   .00   .00   .00   .00   .00   .00   .00   .00   .00   .00   .00
        .00   .00   .00   .00   .00   .00   .00   .00   .00   .00   .00   .00   .00   .00   .00   .00   .00   .00   .00   .00
        .00   .00   .00   .00   .00   .00   .00   .00   .00   .00   .00   .00   .00   .00   .00
0 13    .00   .00   .00   .00   .00   .00   .00   .00   .00   .00   .00   .00   .00   .00   .00   .00   .00   .00   .00   .00
        .00   .00   .00   .00   .00   .00   .00   .00   .00   .00   .00   .00   .00   .00   .00   .00   .00   .00   .00   .00
        .00   .00   .00   .00   .00   .00   .00   .00   .00   .00   .00   .00   .00   .00   .00
0 14    .00   .00   .00   .00   .00   .00   .00   .00   .00   .00   .00   .00   .00   .00   .00   .00   .00   .00   .00   .00
        .00   .00   .00   .00   .00   .00   .00   .00   .00   .00   .00   .00   .00   .00   .00   .00   .00   .00   .00   .00
        .00   .00   .00   .00   .00   .00   .00   .00   .00   .00   .00   .00   .00   .00   .00
0 15    .00   .00   .00   .00   .00   .00   .00   .00   .00   .00   .00   .00   .00   .00   .00   .00   .00   .00   .00   .00
        .00   .00   .00   .00   .00   .00   .00   .00   .00   .00   .00   .00   .00   .00   .00   .00   .00   .00   .00   .00
        .00   .00   .00   .00   .00   .00   .00   .00   .00   .00   .00   .00   .00   .00   .00
0 16    .00   .00   .00   .00   .00   .00   .00   .00   .00   .00   .00   .00   .00   .00   .00   .00   .00   .00   .00   .00
        .00   .00   .00   .00   .00   .00   .00   .01   .01   .01   .01   .01   .01   .01   .01   .00   .00   .00   .00   .00
        .00   .00   .00   .00   .00   .00   .00   .00   .00   .00   .00   .00   .00   .00   .00
0 17    .00   .00   .00   .00   .00   .00   .00   .00   .00   .00   .00   .00   .00   .00   .00   .00   .00   .00   .00   .00
        .00   .00   .00   .00   .01   .01   .01   .01   .01   .01   .01   .01   .01   .01   .01   .00   .00   .00   .00   .00
        .00   .00   .00   .00   .00   .00   .00   .00   .00   .00   .00   .00   .00   .00   .00
0 18    .00   .00   .00   .00   .00   .00   .00   .00   .00   .00   .00   .00   .00   .00   .00   .00   .00   .00   .00   .00
        .00   .00   .01   .01   .01   .01   .01   .02   .02   .02   .02   .02   .02   .02   .02   .03   .00   .00   .00   .00
        .00   .00   .00   .00   .00   .00   .00   .00   .00   .00   .00   .00   .00   .00   .00
0 19    .00   .00   .00   .00   .00   .00   .00   .00   .00   .00   .00   .00   .00   .00   .00   .00   .00   .00   .00   .00
        .01   .01   .01   .01   .02   .02   .02   .03   .03   .04   .04   .04   .04   .04   .04   .04   .04   .00   .00   .00
        .00   .00   .00   .00   .00   .00   .00   .00   .00   .00   .00   .00   .00   .00   .00
0 20    .00   .00   .00   .00   .00   .00   .00   .00   .00   .00   .00   .00   .00   .00   .00   .00   .00   .00   .01   .01
        .01   .01   .02   .02   .03   .03   .04   .05   .05   .06   .07   .07   .07   .06   .06   .06   .05   .00   .00   .00
        .00   .00   .00   .00   .00   .00   .00   .00   .00   .00   .00   .00   .00   .00   .00
0 21    .00   .00   .00   .00   .00   .00   .00   .00   .00   .00   .00   .00   .00   .00   .00   .00   .00   .01   .01   .01
        .02   .02   .03   .03   .04   .05   .07   .08   .09   .10   .11   .11   .11   .11   .10   .09   .07   .00   .00   .00
        .00   .00   .00   .00   .00   .00   .00   .00   .00   .00   .00   .00   .00   .00   .00
0 22    .00   .00   .00   .00   .00   .00   .00   .00   .00   .00   .00   .00   .00   .00   .00   .01   .01   .01   .01   .02
        .02   .03   .04   .05   .07   .09   .10   .12   .15   .17   .18   .19   .18   .18   .16   .14   .10   .00   .00   .00
        .00   .00   .00   .00   .00   .00   .00   .00   .00   .00   .00   .00   .00   .00   .00
0 23    .00   .00   .00   .00   .00   .00   .00   .00   .00   .00   .00   .00   .00   .00   .01   .01   .01   .01   .02   .03
        .03   .05   .06   .08   .10   .12   .15   .18   .21   .24   .26   .27   .27   .25   .24   .22   .00   .00   .00   .00
        .00   .00   .00   .00   .00   .00   .00   .00   .00   .00   .00   .00   .00   .00   .00
0 24    .00   .00   .00   .00   .00   .00   .00   .00   .00   .00   .00   .00   .00   .01   .01   .01   .01   .02   .02   .03
        .04   .05   .07   .09   .12   .15   .18   .22   .27   .31   .34   .36   .35   .33   .30   .28   .00   .00   .00   .00
        .00   .00   .00   .00   .01   .01   .00   .00   .00   .00   .00   .00   .00   .00   .00
0 25    .00   .00   .00   .00   .00   .00   .00   .00   .00   .00   .00   .00   .00   .01   .01   .01   .01   .02   .03   .03
        .04   .06   .08   .10   .13   .17   .21   .27   .33   .39   .43   .45   .44   .40   .36   .32   .29   .24   .20   .15
        .10   .07   .04   .02   .01   .01   .00   .00   .00   .00   .00   .00   .00   .00   .00
0 26    .00   .00   .00   .00   .00   .00   .00   .00   .00   .00   .00   .00   .00   .00   .01   .01   .02   .02   .03   .04
        .05   .07   .08   .11   .14   .18   .24   .30   .38   .46   .53   .56   .53   .47   .40   .34   .29   .25   .20   .16
        .11   .07   .04   .03   .02   .01   .00   .00   .00   .00   .00   .00   .00   .00   .00
0 27    .00   .00   .00   .00   .00   .00   .00   .00   .00   .00   .00   .00   .00   .00   .00   .00   .00   .03   .03   .05
        .06   .07   .09   .12   .15   .20   .26   .34   .44   .55   .68   .75   .67   .56   .45   .37   .30   .25   .20   .16
        .12   .08   .05   .03   .02   .01   .01   .00   .00   .00   .00   .00   .00   .00   .00
0 28    .00   .00   .00   .00   .00   .00   .00   .00   .00   .00   .00   .00   .00   .00   .00   .00   .00   .00   .00   .06
        .06   .08   .10   .13   .16   .21   .28   .36   .48   .65   .88  1.14   .91   .68   .52   .39   .31   .24   .20   .16
        .12   .09   .06   .03   .02   .01   .01   .00   .00   .00   .00   .00   .00   .00   .00
0 29    .00   .00   .00   .00   .00   .00   .00   .00   .00   .00   .00   .00   .00   .00   .00   .00   .00   .00   .06   .06
        .07   .08   .10   .13   .17   .22   .29   .39   .53   .75  1.14  2.02  1.15   .77   .55   .41   .30   .23   .19   .15
        .11   .08   .06   .04   .02   .01   .01   .00   .00   .00   .00   .00   .00   .00   .00
0 30    .00   .00   .00   .00   .00   .00   .00   .00   .00   .00   .00   .00   .00   .00   .00   .00   .00   .00   .06   .06
        .07   .08   .10   .13   .17   .22   .29   .38   .51   .68   .91  1.15   .92   .69   .52   .39   .30   .23   .17   .14
        .11   .08   .06   .04   .03   .01   .01   .00   .00   .00   .00   .00   .00   .00   .00
0 31    .00   .00   .00   .00   .00   .00   .00   .00   .00   .00   .00   .00   .00   .00   .00   .00   .00   .00   .06   .06
        .07   .08   .10   .13   .16   .21   .27   .35   .45   .56   .69   .77   .69   .57   .45   .35   .27   .21   .16   .13
        .10   .07   .06   .04   .03   .01   .01   .00   .00   .00   .00   .00   .00   .00   .00
0 32    .00   .00   .00   .00   .00   .00   .00   .00   .00   .00   .00   .00   .00   .00   .00   .00   .00   .00   .00   .06
        .07   .08   .10   .12   .15   .19   .24   .30   .37   .45   .52   .55   .52   .45   .38   .31   .24   .19   .15   .12
        .09   .07   .05   .04   .02   .01   .01   .01   .00   .00   .00   .00   .00   .00   .00
0 33    .00   .00   .00   .00   .00   .00   .00   .00   .00   .00   .00   .00   .00   .00   .00   .00   .00   .00   .00   .06
        .06   .07   .09   .11   .14   .17   .21   .25   .30   .35   .39   .41   .40   .36   .31   .26   .21   .17   .13   .10
        .08   .06   .05   .04   .02   .01   .01   .01   .00   .00   .00   .00   .00   .00   .00
0 34    .00   .00   .00   .00   .00   .00   .00   .00   .00   .00   .00   .00   .00   .00   .00   .00   .00   .00   .00   .05
        .06   .07   .08   .10   .12   .15   .18   .21   .25   .28   .30   .31   .30   .28   .25   .21   .17   .14   .11   .09
        .07   .06   .04   .03   .02   .02   .01   .01   .00   .00   .00   .00   .00   .00   .00
0 35    .00   .00   .00   .00   .00   .00   .00   .00   .00   .00   .00   .00   .00   .00   .00   .00   .00   .00   .03   .04
        .05   .06   .07   .09   .10   .12   .15   .17   .20   .22   .23   .24   .23   .22   .20   .17   .14   .12   .10   .08
        .06   .05   .04   .03   .02   .02   .01   .01   .01   .00   .00   .00   .00   .00   .00
0 36    .00   .00   .00   .00   .00   .00   .00   .00   .00   .00   .00   .00   .00   .00   .00   .00   .00   .00   .03   .03
        .04   .05   .06   .08   .09   .11   .12   .14   .16   .17   .18   .19   .18   .17   .15   .14   .12   .10   .08   .07
        .05   .04   .03   .03   .02   .02   .01   .01   .01   .00   .00   .00   .00   .00   .00
0 37    .00   .00   .00   .00   .00   .00   .00   .00   .00   .00   .00   .00   .00   .00   .00   .00   .00   .00   .00   .03
        .03   .04   .05   .06   .08   .09   .10   .12   .13   .14   .14   .15   .14   .13   .12   .11   .10   .08   .07   .06
        .05   .04   .03   .02   .02   .02   .01   .01   .00   .00   .00   .00   .00   .00   .00
0 38    .00   .00   .00   .00   .00   .00   .00   .00   .00   .00   .00   .00   .00   .00   .00   .00   .00   .00   .00   .02
        .02   .03   .04   .05   .06   .07   .08   .10   .11   .11   .12   .12   .11   .11   .10   .09   .08   .07   .06   .05
        .04   .03   .03   .02   .02   .02   .01   .00   .00   .00   .00   .00   .00   .00   .00
0 39    .00   .00   .00   .00   .00   .00   .00   .00   .00   .00   .00   .00   .00   .00   .00   .00   .00   .00   .00   .02
        .02   .02   .03   .03   .04   .05   .06   .07   .08   .09   .10   .10   .09   .09   .08   .07   .07   .06   .05   .04
        .03   .03   .02   .02   .02   .02   .00   .00   .00   .00   .00   .00   .00   .00   .00
0 40    .00   .00   .00   .00   .00   .00   .00   .00   .00   .00   .00   .00   .00   .00   .00   .00   .00   .01   .01   .01
        .01   .02   .02   .03   .03   .04   .05   .06   .06   .07   .08   .08   .08   .07   .06   .06   .05   .04   .04   .03
        .03   .02   .02   .02   .02   .00   .00   .00   .00   .00   .00   .00   .00   .00   .00
0 41    .00   .00   .00   .00   .00   .00   .00   .00   .00   .00   .00   .00   .00   .00   .00   .00   .00   .00   .01   .01
        .01   .01   .02   .02   .02   .03   .04   .04   .05   .06   .06   .07   .06   .05   .05   .04   .04   .03   .03   .02
        .02   .02   .02   .02   .02   .00   .00   .00   .00   .00   .00   .00   .00   .00   .00
0 42    .00   .00   .00   .00   .00   .00   .00   .00   .00   .00   .00   .00   .00   .00   .00   .00   .00   .00   .00   .01
        .01   .01   .01   .02   .02   .02   .03   .04   .04   .00   .00   .00   .00   .04   .04   .03   .03   .03   .02   .02
        .02   .02   .02   .01   .00   .00   .00   .00   .00   .00   .00   .00   .00   .00   .00
0 43    .00   .00   .00   .00   .00   .00   .00   .00   .00   .00   .00   .00   .00   .00   .00   .00   .00   .00   .00   .01
        .01   .01   .01   .01   .02   .02   .00   .00   .00   .00   .00   .00   .00   .00   .03   .03   .02   .02   .02   .02
        .02   .00   .00   .00   .00   .00   .00   .00   .00   .00   .00   .00   .00   .00   .00
0 44    .00   .00   .00   .00   .00   .00   .00   .00   .00   .00   .00   .00   .00   .00   .00   .00   .00   .00   .00   .00
        .00   .00   .00   .00   .00   .00   .00   .00   .00   .00   .00   .00   .00   .00   .02   .02   .00   .00   .00   .00
        .00   .00   .00   .00   .00   .00   .00   .00   .00   .00   .00   .00   .00   .00   .00
0


                              VOLUMETRIC BUDGET FOR ENTIRE MODEL AT END OF TIME STEP 13 IN STRESS PERIOD  1
                              -----------------------------------------------------------------------------
0                   CUMULATIVE VOLUMES      L**3                                     RATES FOR THIS TIME STEP      L**3/T
                    ------------------                                               ------------------------

                          IN:                                                                    IN:
                          ---                                                                    ---
                            STORAGE =    55804.                                                    STORAGE =    .81510    
                      CONSTANT HEAD =    .00000                                              CONSTANT HEAD =    .00000    
                              WELLS =    .00000                                                      WELLS =    .00000    
                      RIVER LEAKAGE =    6269.4                                              RIVER LEAKAGE =    .14789    
0                          TOTAL IN =    62074.                                                   TOTAL IN =    .96299    
0                        OUT:                                                                   OUT:
                         ----                                                                   ----
                            STORAGE =    .00000                                                    STORAGE =    .00000    
                      CONSTANT HEAD =    .00000                                              CONSTANT HEAD =    .00000    
                              WELLS =    62074.                                                      WELLS =    .96300    
                      RIVER LEAKAGE =    .00000                                              RIVER LEAKAGE =    .00000    
0                         TOTAL OUT =    62074.                                                  TOTAL OUT =    .96300    
0                          IN - OUT =   -.85938E-01                                               IN - OUT =   -.78678E-05
0               PERCENT DISCREPANCY =                 .00                              PERCENT DISCREPANCY =                 .00



0


          TIME SUMMARY AT END OF TIME STEP 13 IN STRESS PERIOD  1
                               SECONDS        MINUTES         HOURS          DAYS           YEARS
                           ---------------------------------------------------------------------------
      TIME STEP LENGTH         19084.0        318.066        5.30110        .220879        .604734E-03
    STRESS PERIOD TIME         64458.9        1074.32        17.9053        .746052        .204258E-02
 TOTAL SIMULATION TIME         64458.9        1074.32        17.9053        .746052        .204258E-02
1
     9 ITERATIONS FOR TIME STEP  14 IN STRESS PERIOD  1
0MAXIMUM HEAD CHANGE FOR EACH ITERATION:
0 HEAD CHANGE LAYER,ROW,COL HEAD CHANGE LAYER,ROW,COL HEAD CHANGE LAYER,ROW,COL HEAD CHANGE LAYER,ROW,COL HEAD CHANGE LAYER,ROW,COL
 ------------------------------------------------------------------------------------------------------------------------------------
   -.2829E-01 (  1, 22, 33)  -.3359E-01 (  1, 24, 33)  -.3691E-01 (  1, 25, 37)  -.1268E-01 (  1, 31, 32)  -.2946E-02 (  1, 24, 36)
   -.1283E-02 (  1, 39, 46)  -.3612E-03 (  1, 38, 45)  -.5527E-03 (  1, 39, 46)  -.9264E-04 (  1, 36, 43)
0
0HEAD/DRAWDOWN PRINTOUT FLAG = 1     TOTAL BUDGET PRINTOUT FLAG = 1     CELL-BY-CELL FLOW TERM FLAG = 0
0OUTPUT FLAGS FOR ALL LAYERS ARE THE SAME:
   HEAD    DRAWDOWN  HEAD  DRAWDOWN
 PRINTOUT  PRINTOUT  SAVE    SAVE
 ----------------------------------
     0         1       0       0
1                  DRAWDOWN IN LAYER  1 AT END OF TIME STEP 14 IN STRESS PERIOD  1
           -----------------------------------------------------------------------

         1     2     3     4     5     6     7     8     9    10    11    12    13    14    15    16    17    18    19    20
        21    22    23    24    25    26    27    28    29    30    31    32    33    34    35    36    37    38    39    40
        41    42    43    44    45    46    47    48    49    50    51    52    53    54    55
 ................................................................................................................................
0  1    .00   .00   .00   .00   .00   .00   .00   .00   .00   .00   .00   .00   .00   .00   .00   .00   .00   .00   .00   .00
        .00   .00   .00   .00   .00   .00   .00   .00   .00   .00   .00   .00   .00   .00   .00   .00   .00   .00   .00   .00
        .00   .00   .00   .00   .00   .00   .00   .00   .00   .00   .00   .00   .00   .00   .00
0  2    .00   .00   .00   .00   .00   .00   .00   .00   .00   .00   .00   .00   .00   .00   .00   .00   .00   .00   .00   .00
        .00   .00   .00   .00   .00   .00   .00   .00   .00   .00   .00   .00   .00   .00   .00   .00   .00   .00   .00   .00
        .00   .00   .00   .00   .00   .00   .00   .00   .00   .00   .00   .00   .00   .00   .00
0  3    .00   .00   .00   .00   .00   .00   .00   .00   .00   .00   .00   .00   .00   .00   .00   .00   .00   .00   .00   .00
        .00   .00   .00   .00   .00   .00   .00   .00   .00   .00   .00   .00   .00   .00   .00   .00   .00   .00   .00   .00
        .00   .00   .00   .00   .00   .00   .00   .00   .00   .00   .00   .00   .00   .00   .00
0  4    .00   .00   .00   .00   .00   .00   .00   .00   .00   .00   .00   .00   .00   .00   .00   .00   .00   .00   .00   .00
        .00   .00   .00   .00   .00   .00   .00   .00   .00   .00   .00   .00   .00   .00   .00   .00   .00   .00   .00   .00
        .00   .00   .00   .00   .00   .00   .00   .00   .00   .00   .00   .00   .00   .00   .00
0  5    .00   .00   .00   .00   .00   .00   .00   .00   .00   .00   .00   .00   .00   .00   .00   .00   .00   .00   .00   .00
        .00   .00   .00   .00   .00   .00   .00   .00   .00   .00   .00   .00   .00   .00   .00   .00   .00   .00   .00   .00
        .00   .00   .00   .00   .00   .00   .00   .00   .00   .00   .00   .00   .00   .00   .00
0  6    .00   .00   .00   .00   .00   .00   .00   .00   .00   .00   .00   .00   .00   .00   .00   .00   .00   .00   .00   .00
        .00   .00   .00   .00   .00   .00   .00   .00   .00   .00   .00   .00   .00   .00   .00   .00   .00   .00   .00   .00
        .00   .00   .00   .00   .00   .00   .00   .00   .00   .00   .00   .00   .00   .00   .00
0  7    .00   .00   .00   .00   .00   .00   .00   .00   .00   .00   .00   .00   .00   .00   .00   .00   .00   .00   .00   .00
        .00   .00   .00   .00   .00   .00   .00   .00   .00   .00   .00   .00   .00   .00   .00   .00   .00   .00   .00   .00
        .00   .00   .00   .00   .00   .00   .00   .00   .00   .00   .00   .00   .00   .00   .00
0  8    .00   .00   .00   .00   .00   .00   .00   .00   .00   .00   .00   .00   .00   .00   .00   .00   .00   .00   .00   .00
        .00   .00   .00   .00   .00   .00   .00   .00   .00   .00   .00   .00   .00   .00   .00   .00   .00   .00   .00   .00
        .00   .00   .00   .00   .00   .00   .00   .00   .00   .00   .00   .00   .00   .00   .00
0  9    .00   .00   .00   .00   .00   .00   .00   .00   .00   .00   .00   .00   .00   .00   .00   .00   .00   .00   .00   .00
        .00   .00   .00   .00   .00   .00   .00   .00   .00   .00   .00   .00   .00   .00   .00   .00   .00   .00   .00   .00
        .00   .00   .00   .00   .00   .00   .00   .00   .00   .00   .00   .00   .00   .00   .00
0 10    .00   .00   .00   .00   .00   .00   .00   .00   .00   .00   .00   .00   .00   .00   .00   .00   .00   .00   .00   .00
        .00   .00   .00   .00   .00   .00   .00   .00   .00   .00   .00   .00   .00   .00   .00   .00   .00   .00   .00   .00
        .00   .00   .00   .00   .00   .00   .00   .00   .00   .00   .00   .00   .00   .00   .00
0 11    .00   .00   .00   .00   .00   .00   .00   .00   .00   .00   .00   .00   .00   .00   .00   .00   .00   .00   .00   .00
        .00   .00   .00   .00   .00   .00   .00   .00   .00   .00   .00   .00   .00   .00   .00   .00   .00   .00   .00   .00
        .00   .00   .00   .00   .00   .00   .00   .00   .00   .00   .00   .00   .00   .00   .00
0 12    .00   .00   .00   .00   .00   .00   .00   .00   .00   .00   .00   .00   .00   .00   .00   .00   .00   .00   .00   .00
        .00   .00   .00   .00   .00   .00   .00   .00   .00   .00   .00   .00   .00   .00   .00   .00   .00   .00   .00   .00
        .00   .00   .00   .00   .00   .00   .00   .00   .00   .00   .00   .00   .00   .00   .00
0 13    .00   .00   .00   .00   .00   .00   .00   .00   .00   .00   .00   .00   .00   .00   .00   .00   .00   .00   .00   .00
        .00   .00   .00   .00   .00   .00   .00   .00   .00   .00   .00   .00   .00   .00   .00   .00   .00   .00   .00   .00
        .00   .00   .00   .00   .00   .00   .00   .00   .00   .00   .00   .00   .00   .00   .00
0 14    .00   .00   .00   .00   .00   .00   .00   .00   .00   .00   .00   .00   .00   .00   .00   .00   .00   .00   .00   .00
        .00   .00   .00   .00   .00   .00   .00   .01   .01   .01   .01   .01   .01   .01   .01   .00   .00   .00   .00   .00
        .00   .00   .00   .00   .00   .00   .00   .00   .00   .00   .00   .00   .00   .00   .00
0 15    .00   .00   .00   .00   .00   .00   .00   .00   .00   .00   .00   .00   .00   .00   .00   .00   .00   .00   .00   .00
        .00   .00   .00   .00   .01   .01   .01   .01   .01   .01   .01   .01   .01   .01   .01   .01   .00   .00   .00   .00
        .00   .00   .00   .00   .00   .00   .00   .00   .00   .00   .00   .00   .00   .00   .00
0 16    .00   .00   .00   .00   .00   .00   .00   .00   .00   .00   .00   .00   .00   .00   .00   .00   .00   .00   .00   .00
        .00   .01   .01   .01   .01   .01   .01   .01   .02   .02   .02   .02   .02   .02   .02   .01   .00   .00   .00   .00
        .00   .00   .00   .00   .00   .00   .00   .00   .00   .00   .00   .00   .00   .00   .00
0 17    .00   .00   .00   .00   .00   .00   .00   .00   .00   .00   .00   .00   .00   .00   .00   .00   .00   .00   .00   .01
        .01   .01   .01   .01   .01   .02   .02   .02   .03   .03   .03   .03   .03   .03   .03   .00   .00   .00   .00   .00
        .00   .00   .00   .00   .00   .00   .00   .00   .00   .00   .00   .00   .00   .00   .00
0 18    .00   .00   .00   .00   .00   .00   .00   .00   .00   .00   .00   .00   .00   .00   .00   .00   .00   .00   .01   .01
        .01   .01   .02   .02   .02   .03   .03   .04   .04   .04   .05   .05   .05   .05   .05   .06   .00   .00   .00   .00
        .00   .00   .00   .00   .00   .00   .00   .00   .00   .00   .00   .00   .00   .00   .00
0 19    .00   .00   .00   .00   .00   .00   .00   .00   .00   .00   .00   .00   .00   .00   .00   .00   .01   .01   .01   .01
        .02   .02   .02   .03   .04   .04   .05   .06   .06   .07   .07   .08   .08   .08   .08   .08   .08   .00   .00   .00
        .00   .00   .00   .00   .00   .00   .00   .00   .00   .00   .00   .00   .00   .00   .00
0 20    .00   .00   .00   .00   .00   .00   .00   .00   .00   .00   .00   .00   .00   .00   .01   .01   .01   .01   .01   .02
        .02   .03   .04   .04   .05   .06   .07   .09   .10   .11   .11   .12   .12   .12   .11   .11   .10   .00   .00   .00
        .00   .00   .00   .00   .00   .00   .00   .00   .00   .00   .00   .00   .00   .00   .00
0 21    .00   .00   .00   .00   .00   .00   .00   .00   .00   .00   .00   .00   .00   .01   .01   .01   .01   .02   .02   .03
        .03   .04   .05   .07   .08   .09   .11   .13   .15   .16   .17   .18   .18   .17   .16   .15   .13   .00   .00   .00
        .00   .00   .00   .00   .00   .00   .00   .00   .00   .00   .00   .00   .00   .00   .00
0 22    .00   .00   .00   .00   .00   .00   .00   .00   .00   .00   .00   .01   .01   .01   .01   .01   .02   .02   .03   .04
        .05   .06   .08   .09   .12   .14   .16   .19   .22   .24   .26   .27   .27   .26   .24   .22   .16   .00   .00   .00
        .00   .00   .00   .00   .00   .00   .00   .00   .00   .00   .00   .00   .00   .00   .00
0 23    .00   .00   .00   .00   .00   .00   .00   .00   .00   .00   .01   .01   .01   .01   .01   .02   .02   .03   .04   .05
        .06   .08   .10   .12   .15   .18   .22   .25   .29   .32   .35   .36   .36   .35   .33   .31   .00   .00   .00   .00
        .00   .00   .00   .00   .00   .00   .00   .00   .00   .00   .00   .00   .00   .00   .00
0 24    .00   .00   .00   .00   .00   .00   .00   .00   .00   .00   .00   .01   .01   .01   .02   .02   .03   .04   .05   .06
        .07   .09   .11   .14   .17   .21   .25   .30   .35   .40   .44   .45   .45   .43   .40   .37   .00   .00   .00   .00
        .00   .00   .00   .00   .02   .02   .01   .01   .01   .00   .00   .00   .00   .00   .00
0 25    .00   .00   .00   .00   .00   .00   .00   .00   .00   .00   .00   .00   .01   .01   .02   .02   .03   .04   .05   .06
        .08   .10   .12   .15   .19   .23   .28   .35   .41   .48   .53   .55   .54   .50   .45   .41   .38   .33   .28   .23
        .17   .12   .08   .05   .03   .02   .01   .01   .01   .00   .00   .00   .00   .00   .00
0 26    .00   .00   .00   .00   .00   .00   .00   .00   .00   .00   .00   .00   .00   .00   .02   .03   .03   .05   .06   .07
        .09   .11   .13   .16   .20   .25   .31   .38   .47   .55   .63   .66   .63   .57   .50   .44   .38   .34   .28   .23
        .18   .12   .09   .06   .04   .02   .01   .01   .01   .00   .00   .00   .00   .00   .00
0 27    .00   .00   .00   .00   .00   .00   .00   .00   .00   .00   .00   .00   .00   .00   .00   .00   .00   .05   .06   .08
        .10   .12   .14   .17   .21   .26   .33   .42   .52   .64   .77   .84   .76   .65   .54   .46   .39   .33   .28   .23
        .18   .13   .09   .06   .04   .03   .02   .01   .01   .00   .00   .00   .00   .00   .00
0 28    .00   .00   .00   .00   .00   .00   .00   .00   .00   .00   .00   .00   .00   .00   .00   .00   .00   .00   .00   .10
        .11   .13   .15   .18   .23   .28   .35   .44   .57   .74   .97  1.23  1.00   .78   .61   .48   .39   .33   .27   .23
        .18   .14   .10   .07   .04   .03   .02   .01   .01   .00   .00   .00   .00   .00   .00
0 29    .00   .00   .00   .00   .00   .00   .00   .00   .00   .00   .00   .00   .00   .00   .00   .00   .00   .00   .10   .10
        .11   .13   .16   .19   .24   .29   .37   .47   .62   .84  1.23  2.12  1.25   .86   .64   .49   .39   .31   .26   .22
        .17   .13   .10   .07   .05   .03   .02   .01   .01   .00   .00   .00   .00   .00   .00
0 30    .00   .00   .00   .00   .00   .00   .00   .00   .00   .00   .00   .00   .00   .00   .00   .00   .00   .00   .10   .11
        .12   .14   .16   .19   .24   .29   .37   .46   .59   .77  1.01  1.25  1.01   .78   .61   .48   .38   .30   .24   .20
        .16   .13   .10   .07   .05   .03   .02   .01   .01   .01   .00   .00   .00   .00   .00
0 31    .00   .00   .00   .00   .00   .00   .00   .00   .00   .00   .00   .00   .00   .00   .00   .00   .00   .00   .10   .11
        .12   .13   .16   .19   .23   .28   .35   .43   .53   .65   .78   .86   .79   .66   .54   .44   .35   .29   .23   .19
        .15   .12   .10   .07   .05   .03   .02   .01   .01   .01   .00   .00   .00   .00   .00
0 32    .00   .00   .00   .00   .00   .00   .00   .00   .00   .00   .00   .00   .00   .00   .00   .00   .00   .00   .00   .11
        .12   .13   .15   .18   .22   .26   .32   .38   .46   .54   .61   .64   .61   .54   .46   .39   .32   .26   .21   .17
        .14   .12   .09   .07   .05   .03   .02   .01   .01   .00   .00   .00   .00   .00   .00
0 33    .00   .00   .00   .00   .00   .00   .00   .00   .00   .00   .00   .00   .00   .00   .00   .00   .00   .00   .00   .11
        .11   .13   .14   .17   .20   .24   .28   .33   .39   .44   .48   .50   .48   .44   .39   .33   .28   .23   .19   .16
        .13   .11   .09   .07   .05   .03   .02   .01   .01   .00   .00   .00   .00   .00   .00
0 34    .00   .00   .00   .00   .00   .00   .00   .00   .00   .00   .00   .00   .00   .00   .00   .00   .00   .00   .00   .10
        .11   .12   .13   .15   .18   .21   .25   .29   .32   .36   .39   .40   .39   .36   .32   .28   .24   .21   .17   .14
        .12   .10   .08   .06   .05   .04   .03   .02   .01   .00   .00   .00   .00   .00   .00
0 35    .00   .00   .00   .00   .00   .00   .00   .00   .00   .00   .00   .00   .00   .00   .00   .00   .00   .00   .07   .08
        .09   .11   .12   .14   .16   .19   .21   .24   .27   .30   .31   .32   .31   .29   .27   .24   .21   .18   .15   .13
        .11   .09   .07   .06   .05   .04   .03   .02   .02   .01   .00   .00   .00   .00   .00
0 36    .00   .00   .00   .00   .00   .00   .00   .00   .00   .00   .00   .00   .00   .00   .00   .00   .00   .00   .07   .07
        .08   .09   .11   .13   .15   .17   .19   .21   .23   .24   .26   .26   .25   .24   .22   .20   .18   .15   .13   .11
        .09   .08   .07   .06   .05   .04   .03   .03   .02   .01   .00   .00   .00   .00   .00
0 37    .00   .00   .00   .00   .00   .00   .00   .00   .00   .00   .00   .00   .00   .00   .00   .00   .00   .00   .00   .06
        .07   .08   .09   .11   .13   .15   .16   .18   .19   .21   .21   .21   .21   .20   .19   .17   .15   .13   .12   .10
        .08   .07   .06   .05   .04   .04   .03   .03   .00   .00   .00   .00   .00   .00   .00
0 38    .00   .00   .00   .00   .00   .00   .00   .00   .00   .00   .00   .00   .00   .00   .00   .00   .00   .00   .00   .05
        .05   .06   .07   .09   .10   .12   .14   .16   .17   .18   .18   .18   .18   .17   .16   .14   .13   .12   .10   .09
        .07   .06   .05   .05   .04   .04   .03   .00   .00   .00   .00   .00   .00   .00   .00
0 39    .00   .00   .00   .00   .00   .00   .00   .00   .00   .00   .00   .00   .00   .00   .00   .00   .00   .00   .00   .04
        .04   .05   .06   .07   .08   .10   .11   .13   .14   .15   .16   .16   .15   .15   .14   .13   .11   .10   .09   .08
        .07   .06   .05   .04   .04   .04   .00   .00   .00   .00   .00   .00   .00   .00   .00
0 40    .00   .00   .00   .00   .00   .00   .00   .00   .00   .00   .00   .00   .00   .00   .00   .00   .00   .02   .02   .03
        .03   .04   .05   .06   .07   .08   .09   .10   .11   .12   .13   .13   .13   .12   .11   .10   .09   .08   .07   .07
        .06   .05   .05   .04   .04   .00   .00   .00   .00   .00   .00   .00   .00   .00   .00
0 41    .00   .00   .00   .00   .00   .00   .00   .00   .00   .00   .00   .00   .00   .00   .00   .00   .00   .02   .02   .02
        .03   .03   .04   .05   .05   .06   .07   .09   .10   .11   .12   .12   .11   .10   .09   .08   .08   .07   .06   .05
        .05   .05   .04   .04   .04   .00   .00   .00   .00   .00   .00   .00   .00   .00   .00
0 42    .00   .00   .00   .00   .00   .00   .00   .00   .00   .00   .00   .00   .00   .00   .00   .01   .01   .01   .02   .02
        .02   .03   .03   .04   .05   .05   .07   .08   .08   .00   .00   .00   .00   .08   .08   .07   .06   .06   .05   .05
        .04   .04   .04   .04   .00   .00   .00   .00   .00   .00   .00   .00   .00   .00   .00
0 43    .00   .00   .00   .00   .00   .00   .00   .00   .00   .00   .00   .00   .00   .00   .00   .01   .01   .01   .01   .02
        .02   .03   .03   .04   .04   .05   .00   .00   .00   .00   .00   .00   .00   .00   .06   .06   .06   .05   .05   .04
        .04   .00   .00   .00   .00   .00   .00   .00   .00   .00   .00   .00   .00   .00   .00
0 44    .00   .00   .00   .00   .00   .00   .00   .00   .00   .00   .00   .00   .00   .00   .00   .00   .01   .01   .00   .00
        .00   .00   .00   .00   .00   .00   .00   .00   .00   .00   .00   .00   .00   .00   .06   .05   .00   .00   .00   .00
        .00   .00   .00   .00   .00   .00   .00   .00   .00   .00   .00   .00   .00   .00   .00
0


                              VOLUMETRIC BUDGET FOR ENTIRE MODEL AT END OF TIME STEP 14 IN STRESS PERIOD  1
                              -----------------------------------------------------------------------------
0                   CUMULATIVE VOLUMES      L**3                                     RATES FOR THIS TIME STEP      L**3/T
                    ------------------                                               ------------------------

                          IN:                                                                    IN:
                          ---                                                                    ---
                            STORAGE =    76814.                                                    STORAGE =    .77856    
                      CONSTANT HEAD =    .00000                                              CONSTANT HEAD =    .00000    
                              WELLS =    .00000                                                      WELLS =    .00000    
                      RIVER LEAKAGE =    11245.                                              RIVER LEAKAGE =    .18439    
0                          TOTAL IN =    88059.                                                   TOTAL IN =    .96295    
0                        OUT:                                                                   OUT:
                         ----                                                                   ----
                            STORAGE =    .00000                                                    STORAGE =    .00000    
                      CONSTANT HEAD =    .00000                                              CONSTANT HEAD =    .00000    
                              WELLS =    88060.                                                      WELLS =    .96300    
                      RIVER LEAKAGE =    .00000                                              RIVER LEAKAGE =    .00000    
0                         TOTAL OUT =    88060.                                                  TOTAL OUT =    .96300    
0                          IN - OUT =   -1.3672                                                   IN - OUT =   -.47266E-04
0               PERCENT DISCREPANCY =                -.00                              PERCENT DISCREPANCY =                -.00



0


          TIME SUMMARY AT END OF TIME STEP 14 IN STRESS PERIOD  1
                               SECONDS        MINUTES         HOURS          DAYS           YEARS
                           ---------------------------------------------------------------------------
      TIME STEP LENGTH         26984.7        449.745        7.49575        .312323        .855094E-03
    STRESS PERIOD TIME         91443.6        1524.06        25.4010        1.05838        .289767E-02
 TOTAL SIMULATION TIME         91443.6        1524.06        25.4010        1.05838        .289767E-02
1
    11 ITERATIONS FOR TIME STEP  15 IN STRESS PERIOD  1
0MAXIMUM HEAD CHANGE FOR EACH ITERATION:
0 HEAD CHANGE LAYER,ROW,COL HEAD CHANGE LAYER,ROW,COL HEAD CHANGE LAYER,ROW,COL HEAD CHANGE LAYER,ROW,COL HEAD CHANGE LAYER,ROW,COL
 ------------------------------------------------------------------------------------------------------------------------------------
   -.3261E-01 (  1, 22, 37)  -.3386E-01 (  1, 22, 36)  -.4324E-01 (  1, 25, 37)  -.1984E-01 (  1, 31, 32)  -.5510E-02 (  1, 24, 36)
   -.2695E-02 (  1, 39, 46)  -.8649E-03 (  1, 38, 45)  -.1588E-02 (  1, 39, 46)  -.3284E-03 (  1, 36, 43)  -.1336E-03 (  1, 39, 46)
   -.4231E-04 (  1, 37, 48)
0
0HEAD/DRAWDOWN PRINTOUT FLAG = 1     TOTAL BUDGET PRINTOUT FLAG = 1     CELL-BY-CELL FLOW TERM FLAG = 0
0OUTPUT FLAGS FOR ALL LAYERS ARE THE SAME:
   HEAD    DRAWDOWN  HEAD  DRAWDOWN
 PRINTOUT  PRINTOUT  SAVE    SAVE
 ----------------------------------
     0         1       0       0
1                  DRAWDOWN IN LAYER  1 AT END OF TIME STEP 15 IN STRESS PERIOD  1
           -----------------------------------------------------------------------

         1     2     3     4     5     6     7     8     9    10    11    12    13    14    15    16    17    18    19    20
        21    22    23    24    25    26    27    28    29    30    31    32    33    34    35    36    37    38    39    40
        41    42    43    44    45    46    47    48    49    50    51    52    53    54    55
 ................................................................................................................................
0  1    .00   .00   .00   .00   .00   .00   .00   .00   .00   .00   .00   .00   .00   .00   .00   .00   .00   .00   .00   .00
        .00   .00   .00   .00   .00   .00   .00   .00   .00   .00   .00   .00   .00   .00   .00   .00   .00   .00   .00   .00
        .00   .00   .00   .00   .00   .00   .00   .00   .00   .00   .00   .00   .00   .00   .00
0  2    .00   .00   .00   .00   .00   .00   .00   .00   .00   .00   .00   .00   .00   .00   .00   .00   .00   .00   .00   .00
        .00   .00   .00   .00   .00   .00   .00   .00   .00   .00   .00   .00   .00   .00   .00   .00   .00   .00   .00   .00
        .00   .00   .00   .00   .00   .00   .00   .00   .00   .00   .00   .00   .00   .00   .00
0  3    .00   .00   .00   .00   .00   .00   .00   .00   .00   .00   .00   .00   .00   .00   .00   .00   .00   .00   .00   .00
        .00   .00   .00   .00   .00   .00   .00   .00   .00   .00   .00   .00   .00   .00   .00   .00   .00   .00   .00   .00
        .00   .00   .00   .00   .00   .00   .00   .00   .00   .00   .00   .00   .00   .00   .00
0  4    .00   .00   .00   .00   .00   .00   .00   .00   .00   .00   .00   .00   .00   .00   .00   .00   .00   .00   .00   .00
        .00   .00   .00   .00   .00   .00   .00   .00   .00   .00   .00   .00   .00   .00   .00   .00   .00   .00   .00   .00
        .00   .00   .00   .00   .00   .00   .00   .00   .00   .00   .00   .00   .00   .00   .00
0  5    .00   .00   .00   .00   .00   .00   .00   .00   .00   .00   .00   .00   .00   .00   .00   .00   .00   .00   .00   .00
        .00   .00   .00   .00   .00   .00   .00   .00   .00   .00   .00   .00   .00   .00   .00   .00   .00   .00   .00   .00
        .00   .00   .00   .00   .00   .00   .00   .00   .00   .00   .00   .00   .00   .00   .00
0  6    .00   .00   .00   .00   .00   .00   .00   .00   .00   .00   .00   .00   .00   .00   .00   .00   .00   .00   .00   .00
        .00   .00   .00   .00   .00   .00   .00   .00   .00   .00   .00   .00   .00   .00   .00   .00   .00   .00   .00   .00
        .00   .00   .00   .00   .00   .00   .00   .00   .00   .00   .00   .00   .00   .00   .00
0  7    .00   .00   .00   .00   .00   .00   .00   .00   .00   .00   .00   .00   .00   .00   .00   .00   .00   .00   .00   .00
        .00   .00   .00   .00   .00   .00   .00   .00   .00   .00   .00   .00   .00   .00   .00   .00   .00   .00   .00   .00
        .00   .00   .00   .00   .00   .00   .00   .00   .00   .00   .00   .00   .00   .00   .00
0  8    .00   .00   .00   .00   .00   .00   .00   .00   .00   .00   .00   .00   .00   .00   .00   .00   .00   .00   .00   .00
        .00   .00   .00   .00   .00   .00   .00   .00   .00   .00   .00   .00   .00   .00   .00   .00   .00   .00   .00   .00
        .00   .00   .00   .00   .00   .00   .00   .00   .00   .00   .00   .00   .00   .00   .00
0  9    .00   .00   .00   .00   .00   .00   .00   .00   .00   .00   .00   .00   .00   .00   .00   .00   .00   .00   .00   .00
        .00   .00   .00   .00   .00   .00   .00   .00   .00   .00   .00   .00   .00   .00   .00   .00   .00   .00   .00   .00
        .00   .00   .00   .00   .00   .00   .00   .00   .00   .00   .00   .00   .00   .00   .00
0 10    .00   .00   .00   .00   .00   .00   .00   .00   .00   .00   .00   .00   .00   .00   .00   .00   .00   .00   .00   .00
        .00   .00   .00   .00   .00   .00   .00   .00   .00   .00   .00   .00   .00   .00   .00   .00   .00   .00   .00   .00
        .00   .00   .00   .00   .00   .00   .00   .00   .00   .00   .00   .00   .00   .00   .00
0 11    .00   .00   .00   .00   .00   .00   .00   .00   .00   .00   .00   .00   .00   .00   .00   .00   .00   .00   .00   .00
        .00   .00   .00   .00   .00   .00   .00   .00   .00   .00   .01   .01   .00   .00   .00   .00   .00   .00   .00   .00
        .00   .00   .00   .00   .00   .00   .00   .00   .00   .00   .00   .00   .00   .00   .00
0 12    .00   .00   .00   .00   .00   .00   .00   .00   .00   .00   .00   .00   .00   .00   .00   .00   .00   .00   .00   .00
        .00   .00   .00   .00   .01   .01   .01   .01   .01   .01   .01   .01   .01   .01   .01   .01   .00   .00   .00   .00
        .00   .00   .00   .00   .00   .00   .00   .00   .00   .00   .00   .00   .00   .00   .00
0 13    .00   .00   .00   .00   .00   .00   .00   .00   .00   .00   .00   .00   .00   .00   .00   .00   .00   .00   .00   .00
        .00   .01   .01   .01   .01   .01   .01   .01   .01   .01   .01   .01   .01   .01   .01   .01   .01   .01   .00   .00
        .00   .00   .00   .00   .00   .00   .00   .00   .00   .00   .00   .00   .00   .00   .00
0 14    .00   .00   .00   .00   .00   .00   .00   .00   .00   .00   .00   .00   .00   .00   .00   .00   .00   .01   .01   .01
        .01   .01   .01   .01   .01   .01   .01   .02   .02   .02   .02   .02   .02   .02   .02   .01   .01   .01   .00   .00
        .00   .00   .00   .00   .00   .00   .00   .00   .00   .00   .00   .00   .00   .00   .00
0 15    .00   .00   .00   .00   .00   .00   .00   .00   .00   .00   .00   .00   .00   .00   .00   .01   .01   .01   .01   .01
        .01   .01   .01   .01   .02   .02   .02   .02   .02   .03   .03   .03   .03   .03   .02   .02   .01   .00   .00   .00
        .00   .00   .00   .00   .00   .00   .00   .00   .00   .00   .00   .00   .00   .00   .00
0 16    .00   .00   .00   .00   .00   .00   .00   .00   .00   .00   .00   .00   .00   .00   .00   .01   .01   .01   .01   .01
        .01   .01   .02   .02   .02   .03   .03   .03   .04   .04   .04   .04   .04   .04   .04   .03   .00   .00   .00   .00
        .00   .00   .00   .00   .00   .00   .00   .00   .00   .00   .00   .00   .00   .00   .00
0 17    .00   .00   .00   .00   .00   .00   .00   .00   .00   .00   .00   .00   .00   .00   .01   .01   .01   .01   .01   .01
        .02   .02   .02   .03   .03   .04   .04   .05   .05   .06   .06   .06   .06   .07   .07   .00   .00   .00   .00   .00
        .00   .00   .00   .00   .00   .00   .00   .00   .00   .00   .00   .00   .00   .00   .00
0 18    .00   .00   .00   .00   .00   .00   .00   .00   .00   .00   .00   .00   .00   .01   .01   .01   .01   .01   .02   .02
        .02   .03   .03   .04   .05   .06   .06   .07   .08   .08   .09   .09   .09   .10   .10   .12   .00   .00   .00   .00
        .00   .00   .00   .00   .00   .00   .00   .00   .00   .00   .00   .00   .00   .00   .00
0 19    .00   .00   .00   .00   .00   .00   .00   .00   .00   .00   .00   .01   .01   .01   .01   .01   .01   .02   .02   .03
        .03   .04   .05   .06   .07   .08   .09   .10   .11   .12   .13   .13   .13   .14   .14   .14   .15   .00   .00   .00
        .00   .00   .00   .00   .00   .00   .00   .00   .00   .00   .00   .00   .00   .00   .00
0 20    .00   .00   .00   .00   .00   .00   .00   .00   .00   .00   .01   .01   .01   .01   .01   .02   .02   .03   .03   .04
        .05   .06   .07   .08   .09   .11   .13   .14   .16   .17   .18   .19   .19   .19   .18   .18   .18   .00   .00   .00
        .00   .00   .00   .00   .00   .00   .00   .00   .00   .00   .00   .00   .00   .00   .00
0 21    .00   .00   .00   .00   .00   .00   .00   .00   .00   .01   .01   .01   .01   .02   .02   .02   .03   .03   .04   .05
        .06   .08   .09   .11   .13   .15   .17   .20   .22   .24   .25   .26   .26   .26   .25   .24   .22   .00   .00   .00
        .00   .00   .00   .00   .00   .00   .00   .00   .00   .00   .00   .00   .00   .00   .00
0 22    .00   .00   .00   .00   .00   .00   .00   .00   .00   .01   .01   .01   .02   .02   .02   .03   .04   .05   .06   .07
        .09   .10   .12   .15   .18   .20   .24   .27   .30   .33   .35   .36   .36   .35   .34   .31   .25   .00   .00   .00
        .00   .00   .00   .00   .00   .00   .00   .00   .00   .00   .00   .00   .00   .00   .00
0 23    .00   .00   .00   .00   .00   .00   .00   .00   .00   .00   .01   .02   .02   .02   .03   .04   .05   .06   .07   .09
        .11   .13   .15   .18   .22   .26   .29   .33   .38   .42   .45   .46   .46   .45   .43   .41   .00   .00   .00   .00
        .00   .00   .00   .00   .00   .00   .00   .00   .00   .00   .00   .00   .00   .00   .00
0 24    .00   .00   .00   .00   .00   .00   .00   .00   .00   .00   .00   .02   .02   .03   .03   .04   .05   .06   .08   .10
        .12   .14   .17   .20   .24   .29   .33   .38   .44   .50   .54   .56   .55   .53   .50   .48   .00   .00   .00   .00
        .00   .00   .00   .00   .05   .04   .03   .02   .02   .01   .01   .00   .00   .00   .00
0 25    .00   .00   .00   .00   .00   .00   .00   .00   .00   .00   .00   .00   .03   .03   .04   .05   .06   .07   .09   .10
        .12   .15   .18   .22   .26   .31   .37   .44   .51   .58   .63   .65   .64   .60   .56   .51   .48   .43   .38   .32
        .25   .19   .14   .10   .06   .04   .03   .02   .02   .01   .01   .01   .00   .00   .00
0 26    .00   .00   .00   .00   .00   .00   .00   .00   .00   .00   .00   .00   .00   .00   .04   .05   .06   .08   .10   .12
        .14   .16   .19   .22   .27   .33   .39   .47   .56   .65   .72   .76   .73   .67   .60   .54   .48   .43   .38   .32
        .26   .19   .14   .10   .07   .05   .03   .02   .02   .01   .01   .01   .01   .00   .00
0 27    .00   .00   .00   .00   .00   .00   .00   .00   .00   .00   .00   .00   .00   .00   .00   .00   .00   .09   .11   .13
        .15   .18   .21   .24   .28   .34   .42   .51   .61   .74   .86   .94   .86   .75   .64   .56   .49   .43   .37   .32
        .26   .21   .15   .11   .08   .05   .04   .03   .02   .01   .01   .01   .00   .00   .00
0 28    .00   .00   .00   .00   .00   .00   .00   .00   .00   .00   .00   .00   .00   .00   .00   .00   .00   .00   .00   .16
        .17   .19   .22   .26   .30   .36   .43   .53   .66   .83  1.07  1.33  1.10   .88   .71   .57   .49   .41   .36   .31
        .26   .21   .16   .12   .08   .06   .04   .03   .02   .01   .01   .01   .00   .00   .00
0 29    .00   .00   .00   .00   .00   .00   .00   .00   .00   .00   .00   .00   .00   .00   .00   .00   .00   .00   .17   .17
        .18   .20   .23   .27   .31   .37   .45   .56   .71   .93  1.33  2.22  1.35   .96   .74   .59   .47   .40   .34   .29
        .25   .20   .16   .12   .09   .06   .04   .03   .02   .01   .01   .01   .00   .00   .00
0 30    .00   .00   .00   .00   .00   .00   .00   .00   .00   .00   .00   .00   .00   .00   .00   .00   .00   .00   .17   .17
        .19   .20   .23   .27   .32   .38   .45   .55   .69   .87  1.10  1.35  1.11   .88   .71   .57   .47   .39   .32   .27
        .23   .19   .15   .12   .09   .06   .04   .03   .02   .01   .01   .01   .01   .00   .00
0 31    .00   .00   .00   .00   .00   .00   .00   .00   .00   .00   .00   .00   .00   .00   .00   .00   .00   .00   .17   .18
        .19   .21   .23   .27   .31   .37   .44   .52   .63   .75   .88   .96   .89   .76   .64   .53   .44   .37   .31   .26
        .21   .18   .15   .12   .09   .06   .04   .03   .02   .02   .01   .00   .00   .00   .00
0 32    .00   .00   .00   .00   .00   .00   .00   .00   .00   .00   .00   .00   .00   .00   .00   .00   .00   .00   .00   .18
        .19   .20   .23   .26   .30   .35   .41   .47   .55   .64   .71   .74   .71   .64   .56   .48   .41   .34   .29   .24
        .21   .17   .14   .11   .09   .06   .05   .03   .03   .00   .00   .00   .00   .00   .00
0 33    .00   .00   .00   .00   .00   .00   .00   .00   .00   .00   .00   .00   .00   .00   .00   .00   .00   .00   .00   .18
        .18   .20   .22   .25   .28   .32   .37   .42   .48   .54   .58   .60   .58   .54   .48   .42   .37   .31   .27   .23
        .19   .16   .14   .11   .09   .06   .04   .03   .03   .00   .00   .00   .00   .00   .00
0 34    .00   .00   .00   .00   .00   .00   .00   .00   .00   .00   .00   .00   .00   .00   .00   .00   .00   .00   .00   .17
        .18   .19   .21   .23   .26   .29   .33   .37   .42   .45   .48   .49   .48   .45   .41   .37   .33   .28   .25   .21
        .18   .15   .13   .11   .09   .07   .06   .04   .04   .00   .00   .00   .00   .00   .00
0 35    .00   .00   .00   .00   .00   .00   .00   .00   .00   .00   .00   .00   .00   .00   .00   .00   .00   .00   .13   .15
        .16   .18   .20   .22   .24   .27   .30   .33   .36   .39   .40   .41   .40   .38   .35   .32   .29   .25   .22   .19
        .17   .14   .12   .11   .09   .08   .06   .05   .04   .04   .00   .00   .00   .00   .00
0 36    .00   .00   .00   .00   .00   .00   .00   .00   .00   .00   .00   .00   .00   .00   .00   .00   .00   .00   .13   .13
        .14   .16   .18   .20   .22   .24   .27   .29   .31   .33   .34   .35   .34   .33   .31   .28   .25   .23   .20   .18
        .15   .13   .12   .10   .09   .08   .07   .06   .04   .04   .00   .00   .00   .00   .00
0 37    .00   .00   .00   .00   .00   .00   .00   .00   .00   .00   .00   .00   .00   .00   .00   .00   .00   .00   .00   .12
        .12   .14   .15   .18   .20   .22   .24   .26   .28   .29   .30   .30   .29   .28   .27   .25   .23   .20   .18   .16
        .14   .12   .11   .10   .09   .08   .07   .06   .00   .00   .00   .00   .00   .00   .00
0 38    .00   .00   .00   .00   .00   .00   .00   .00   .00   .00   .00   .00   .00   .00   .00   .00   .00   .00   .00   .10
        .11   .12   .13   .15   .17   .19   .21   .23   .25   .26   .26   .26   .26   .25   .24   .22   .20   .18   .16   .15
        .13   .12   .10   .09   .08   .08   .07   .00   .00   .00   .00   .00   .00   .00   .00
0 39    .00   .00   .00   .00   .00   .00   .00   .00   .00   .00   .00   .00   .00   .00   .00   .00   .00   .00   .00   .08
        .09   .10   .11   .13   .14   .16   .18   .20   .22   .23   .24   .24   .23   .22   .21   .20   .18   .17   .15   .13
        .12   .11   .10   .09   .08   .08   .00   .00   .00   .00   .00   .00   .00   .00   .00
0 40    .00   .00   .00   .00   .00   .00   .00   .00   .00   .00   .00   .00   .00   .00   .00   .00   .00   .04   .05   .06
        .07   .08   .10   .11   .12   .14   .16   .17   .19   .20   .21   .21   .21   .20   .19   .17   .16   .15   .13   .12
        .11   .10   .09   .09   .08   .00   .00   .00   .00   .00   .00   .00   .00   .00   .00
0 41    .00   .00   .00   .00   .00   .00   .00   .00   .00   .00   .00   .00   .00   .00   .00   .00   .00   .04   .05   .06
        .06   .07   .08   .09   .11   .12   .14   .15   .17   .18   .19   .20   .19   .17   .16   .15   .14   .13   .12   .11
        .10   .09   .09   .08   .08   .00   .00   .00   .00   .00   .00   .00   .00   .00   .00
0 42    .00   .00   .00   .00   .00   .00   .00   .00   .00   .00   .00   .00   .00   .00   .00   .03   .03   .04   .04   .05
        .06   .07   .07   .08   .10   .11   .13   .14   .15   .00   .00   .00   .00   .15   .14   .13   .12   .11   .11   .10
        .09   .09   .08   .08   .00   .00   .00   .00   .00   .00   .00   .00   .00   .00   .00
0 43    .00   .00   .00   .00   .00   .00   .00   .00   .00   .00   .00   .00   .00   .00   .00   .03   .03   .03   .04   .05
        .05   .06   .07   .08   .09   .10   .00   .00   .00   .00   .00   .00   .00   .00   .12   .12   .11   .11   .10   .09
        .09   .00   .00   .00   .00   .00   .00   .00   .00   .00   .00   .00   .00   .00   .00
0 44    .00   .00   .00   .00   .00   .00   .00   .00   .00   .00   .00   .00   .00   .00   .00   .00   .03   .03   .00   .00
        .00   .00   .00   .00   .00   .00   .00   .00   .00   .00   .00   .00   .00   .00   .11   .11   .00   .00   .00   .00
        .00   .00   .00   .00   .00   .00   .00   .00   .00   .00   .00   .00   .00   .00   .00
0


                              VOLUMETRIC BUDGET FOR ENTIRE MODEL AT END OF TIME STEP 15 IN STRESS PERIOD  1
                              -----------------------------------------------------------------------------
0                   CUMULATIVE VOLUMES      L**3                                     RATES FOR THIS TIME STEP      L**3/T
                    ------------------                                               ------------------------

                          IN:                                                                    IN:
                          ---                                                                    ---
                            STORAGE =    .10485E+06                                                STORAGE =    .73482    
                      CONSTANT HEAD =    .00000                                              CONSTANT HEAD =    .00000    
                              WELLS =    .00000                                                      WELLS =    .00000    
                      RIVER LEAKAGE =    19948.                                              RIVER LEAKAGE =    .22808    
0                          TOTAL IN =    .12480E+06                                               TOTAL IN =    .96290    
0                        OUT:                                                                   OUT:
                         ----                                                                   ----
                            STORAGE =    .00000                                                    STORAGE =    .00000    
                      CONSTANT HEAD =    .00000                                              CONSTANT HEAD =    .00000    
                              WELLS =    .12480E+06                                                  WELLS =    .96300    
                      RIVER LEAKAGE =    .00000                                              RIVER LEAKAGE =    .00000    
0                         TOTAL OUT =    .12480E+06                                              TOTAL OUT =    .96300    
0                          IN - OUT =   -5.0859                                                   IN - OUT =   -.97692E-04
0               PERCENT DISCREPANCY =                -.00                              PERCENT DISCREPANCY =                -.01



0


          TIME SUMMARY AT END OF TIME STEP 15 IN STRESS PERIOD  1
                               SECONDS        MINUTES         HOURS          DAYS           YEARS
                           ---------------------------------------------------------------------------
      TIME STEP LENGTH         38156.4        635.940        10.5990        .441625        .120910E-02
    STRESS PERIOD TIME         129600.        2160.00        36.0000        1.50000        .410678E-02
 TOTAL SIMULATION TIME         129600.        2160.00        36.0000        1.50000        .410678E-02
1
