1                    U.S. GEOLOGICAL SURVEY MODULAR FINITE-DIFFERENCE GROUND-WATER MODEL
0LIPARI LANDFILL SIMULATIONS                                                     1/16/92   PFA  part b cap only                  
    1 LAYERS        39 ROWS        37 COLUMNS
   1 STRESS PERIOD(S) IN SIMULATION
 MODEL TIME UNIT IS SECONDS
0I/O UNITS:
 ELEMENT OF IUNIT:  1  2  3  4  5  6  7  8  9 10 11 12 13 14 15 16 17 18 19 20 21 22 23 24
         I/O UNIT: 11  0  0  0  0  0  0 18 19  0  0 22  0  0  0  0  0  0  0  0  0  0  0  0
0BAS1 -- BASIC MODEL PACKAGE, VERSION 1, 9/1/87 INPUT READ FROM UNIT  1
 ARRAYS RHS AND BUFF WILL SHARE MEMORY.
 START HEAD WILL NOT BE SAVED -- DRAWDOWN CANNOT BE CALCULATED
    11624 ELEMENTS IN X ARRAY ARE USED BY BAS
    11624 ELEMENTS OF X ARRAY USED OUT OF   80000
0BCF1 -- BLOCK-CENTERED FLOW PACKAGE, VERSION 1, 9/1/87 INPUT READ FROM UNIT 11
 TRANSIENT SIMULATION
      LAYER  AQUIFER TYPE
      -------------------
         1         1
     4330 ELEMENTS IN X ARRAY ARE USED BY BCF
    15954 ELEMENTS OF X ARRAY USED OUT OF   80000
0RCH1 -- RECHARGE PACKAGE, VERSION 1, 9/1/87 INPUT READ FROM UNIT 18
 OPTION 1 -- RECHARGE TO TOP LAYER
     1443 ELEMENTS OF X ARRAY USED FOR RECHARGE
    17397 ELEMENTS OF X ARRAY USED OUT OF   80000
0SIP1 -- STRONGLY IMPLICIT PROCEDURE SOLUTION PACKAGE, VERSION 1, 9/1/87 INPUT READ FROM UNIT 19
 MAXIMUM OF  50 ITERATIONS ALLOWED FOR CLOSURE
  5 ITERATION PARAMETERS
     5977 ELEMENTS IN X ARRAY ARE USED BY SIP
    23374 ELEMENTS OF X ARRAY USED OUT OF   80000
1LIPARI LANDFILL SIMULATIONS                                                     1/16/92   PFA  part b cap only                  
0


                                        BOUNDARY ARRAY FOR LAYER  1 WILL BE READ ON UNIT  1 USING FORMAT: (40I2)              
                              ------------------------------------------------------------------------------------------------

            1           2           3           4           5           6           7           8           9          10
           11          12          13          14          15          16          17          18          19          20
           21          22          23          24          25          26          27          28          29          30
           31          32          33          34          35          36          37
 .............................................................................................................................
0  1            0           0           0           0           0           0           0           0           0           0
                0           0           0           0           0           0           0           0           0           0
                0           0           0           0           0           0           0           0           0           0
                0           0           0           0           0           0           0
0  2            0           1           1           1           1           1           1           1           1           1
                1           1           1           1           1           1           1           1           1           1
                1           1           1           1           1           1           1           1           1           1
                1           1           0           0           0           0           0
0  3            0           1           1           1           1           1           1           1           1           1
                1           1           1           1           1           1           1           1           1           1
                1           1           1           1           1           1           1           1           1           1
                1          -1          -1           0           0           0           0
0  4            0           1           1           1           1           1           1           1           1           1
                1           1           1           1           1           1           1           1           1           1
                1           1           1           1           1           1           1           1           1           1
                1           1           1          -1           0           0           0
0  5            0          -1           1           1           1           1           1           1           1           1
                1           1           1           1           1           1           1           1           1           1
                1           1           1           1           1           1           1           1           1           1
                1           1           1           1          -1           0           0
0  6            0          -1           1           1           1           1           1           1           1           1
                1           1           1           1           1           1           1           1           1           1
                1           1           1           1           1           1           1           1           1           1
                1           1           1           1           1          -1           0
0  7            0          -1           1           1           1           1           1           1           1           1
                1           1           1           1           1           1           1           1           1           1
                1           1           1           1           1           1           1           1           1           1
                1           1           1           1           1          -1           0
0  8            0          -1           1           1           1           1           1           1           1           1
                1           1           1           1           1           1           1           1           1           1
                1           1           1           1           1           1           1           1           1           1
                1           1           1           1           1          -1           0
0  9            0          -1           1           1           1           1           1           1           1           1
                1           1           1           1           1           1           1           1           1           1
                1           1           1           1           1           1           1           1           1           1
                1           1           1           1           1          -1           0
0 10            0          -1           1           1           1           1           1           1           1           1
                1           1           1           1           1           1           1           1           1           1
                1           1           1           1           1           1           1           1           1           1
                1           1           1           1           1          -1           0
0 11            0          -1           1           1           1           1           1           1           1           1
                1           1           1           1           1           1           1           1           1           1
                1           1           1           1           1           1           1           1           1           1
                1           1           1           1           1          -1           0
0 12            0          -1           1           1           1           1           1           1           1           1
                1           1           1           1           1           1           1           1           1           1
                1           1           1           1           1           1           1           1           1           1
                1           1           1           1           1          -1           0
0 13            0          -1           1           1           1           1           1           1           1           1
                1           1           1           1           1           1           1           1           1           1
                1           1           1           1           1           1           1           1           1           1
                1           1           1           1           1          -1           0
0 14            0          -1           1           1           1           1           1           1           1           1
                1           1           1           1           1           1           1           1           1           1
                1           1           1           1           1           1           1           1           1           1
                1           1           1           1           1          -1           0
0 15            0          -1           1           1           1           1           1           1           1           1
                1           1           1           1           1           1           1           1           1           1
                1           1           1           1           1           1           1           1           1           1
                1           1           1           1           1          -1           0
0 16            0          -1           1           1           1           1           1           1           1           1
                1           1           1           1           1           1           1           1           1           1
                1           1           1           1           1           1           1           1           1           1
                1           1           1           1           1          -1           0
0 17            0          -1           1           1           1           1           1           1           1           1
                1           1           1           1           1           1           1           1           1           1
                1           1           1           1           1           1           1           1           1           1
                1           1           1           1           1          -1           0
0 18            0          -1           1           1           1           1           1           1           1           1
                1           1           1           1           1           1           1           1           1           1
                1           1           1           1           1           1           1           1           1           1
                1           1           1           1           1          -1           0
0 19            0          -1           1           1           1           1           1           1           1           1
                1           1           1           1           1           1           1           1           1           1
                1           1           1           1           1           1           1           1           1           1
                1           1           1           1           1          -1           0
0 20            0          -1           1           1           1           1           1           1           1           1
                1           1           1           1           1           1           1           1           1           1
                1           1           1           1           1           1           1           1           1           1
                1           1           1           1           1          -1           0
0 21            0          -1           1           1           1           1           1           1           1           1
                1           1           1           1           1           1           1           1           1           1
                1           1           1           1           1           1           1           1           1           1
                1           1           1           1           1          -1           0
0 22            0          -1           1           1           1           1           1           1           1           1
                1           1           1           1           1           1           1           1           1           1
                1           1           1           1           1           1           1           1           1           1
                1           1           1           1           1          -1           0
0 23            0          -1           1           1           1           1           1           1           1           1
                1           1           1           1           1           1           1           1           1           1
                1           1           1           1           1           1           1           1           1           1
                1           1           1           1           1          -1           0
0 24            0          -1           1           1           1           1           1           1           1           1
                1           1           1           1           1           1           1           1           1           1
                1           1           1           1           1           1           1           1           1           1
                1           1           1           1           1          -1           0
0 25            0          -1           1           1           1           1           1           1           1           1
                1           1           1           1           1           1           1           1           1           1
                1           1           1           1           1           1           1           1           1           1
                1           1           1           1           1          -1           0
0 26            0          -1           1           1           1           1           1           1           1           1
                1           1           1           1           1           1           1           1           1           1
                1           1           1           1           1           1           1           1           1           1
                1           1           1           1           1          -1           0
0 27            0          -1           1           1           1           1           1           1           1           1
                1           1           1           1           1           1           1           1           1           1
                1           1           1           1           1           1           1           1           1           1
                1           1           1           1          -1          -1           0
0 28            0          -1           1           1           1           1           1           1           1           1
                1           1           1           1           1           1           1           1           1           1
                1           1           1           1           1           1           1           1           1           1
                1           1           1          -1           0           0           0
0 29            0          -1           1           1           1           1           1           1           1           1
                1           1           1           1           1           1           1           1           1           1
                1           1           1           1           1           1           1           1           1           1
               -1          -1           1          -1           0           0           0
0 30            0          -1           1           1           1           1           1           1           1           1
                1           1           1           1           1           1           1           1           1           1
                1           1           1           1           1          -1          -1          -1          -1          -1
               -1           0          -1           0           0           0           0
0 31            0          -1           1           1           1           1           1           1           1           1
                1           1           1           1           1           1           1           1           1           1
                1           1           1           1           1          -1           0           0           0           0
                0           0           0           0           0           0           0
0 32            0          -1           1           1           1           1           1           1           1           1
                1           1           1           1           1           1           1           1           1           1
                1           1           1           1           1          -1           0           0           0           0
                0           0           0           0           0           0           0
0 33            0          -1           1           1           1           1           1           1           1           1
                1           1           1           1           1           1           1           1           1           1
                1           1           1           1          -1          -1           0           0           0           0
                0           0           0           0           0           0           0
0 34            0          -1           1           1           1           1           1           1           1           1
                1           1           1           1           1           1           1           1           1           1
                1           1           1          -1           0           0           0           0           0           0
                0           0           0           0           0           0           0
0 35            0           0          -1           1           1           1           1           1           1           1
                1           1           1           1           1           1           1           1           1          -1
               -1          -1          -1           0           0           0           0           0           0           0
                0           0           0           0           0           0           0
0 36            0           0          -1           1           1           1          -1          -1          -1          -1
               -1          -1          -1          -1          -1          -1          -1          -1          -1           0
                0           0           0           0           0           0           0           0           0           0
                0           0           0           0           0           0           0
0 37            0           0          -1           1           1          -1           0           0           0           0
                0           0           0           0           0           0           0           0           0           0
                0           0           0           0           0           0           0           0           0           0
                0           0           0           0           0           0           0
0 38            0           0          -1          -1          -1           0           0           0           0           0
                0           0           0           0           0           0           0           0           0           0
                0           0           0           0           0           0           0           0           0           0
                0           0           0           0           0           0           0
0 39            0           0           0           0           0           0           0           0           0           0
                0           0           0           0           0           0           0           0           0           0
                0           0           0           0           0           0           0           0           0           0
                0           0           0           0           0           0           0
0AQUIFER HEAD WILL BE SET TO  99.000     AT ALL NO-FLOW NODES (IBOUND=0).
0


                                          INITIAL HEAD, LAYER  1 WILL BE READ UNFORMATTED ON UNIT 31
                              -------------------------------------------------------------------------

            1           2           3           4           5           6           7           8           9          10
           11          12          13          14          15          16          17          18          19          20
           21          22          23          24          25          26          27          28          29          30
           31          32          33          34          35          36          37
 .............................................................................................................................
0  1    99.00       99.00       99.00       99.00       99.00       99.00       99.00       99.00       99.00       99.00    
        99.00       99.00       99.00       99.00       99.00       99.00       99.00       99.00       99.00       99.00    
        99.00       99.00       99.00       99.00       99.00       99.00       99.00       99.00       99.00       99.00    
        99.00       99.00       99.00       99.00       99.00       99.00       99.00    
0  2    99.00       131.7       131.1       130.7       130.3       130.0       129.8       129.6       129.4       129.3    
        129.2       129.1       129.0       128.8       128.5       128.2       127.9       127.5       127.2       126.8    
        126.5       126.1       125.7       125.2       125.0       124.8       124.6       124.5       124.2       123.7    
        123.1       122.5       99.00       99.00       99.00       99.00       99.00    
0  3    99.00       131.4       130.8       130.3       129.9       129.6       129.3       129.1       129.0       128.9    
        128.8       128.7       128.6       128.3       128.1       127.7       127.4       127.1       126.7       126.3    
        125.9       125.5       125.0       124.5       124.1       123.8       123.6       123.4       122.9       122.1    
        120.7       118.0       118.0       99.00       99.00       99.00       99.00    
0  4    99.00       130.8       130.0       129.4       129.0       128.7       128.5       128.3       128.2       128.1    
        128.0       127.9       127.7       127.5       127.2       126.9       126.6       126.3       125.9       125.5    
        125.1       124.7       124.2       123.7       123.3       123.1       122.9       122.7       122.3       121.6    
        120.6       119.0       116.5       110.0       99.00       99.00       99.00    
0  5    99.00       130.0       128.5       128.0       127.6       127.3       127.1       126.9       126.8       126.7    
        126.7       126.6       126.4       126.2       126.0       125.7       125.4       125.1       124.7       124.3    
        124.0       123.5       123.1       122.6       122.3       122.1       121.9       121.7       121.3       120.6    
        119.7       118.1       115.5       111.0       98.00       99.00       99.00    
0  6    99.00       126.0       126.0       125.8       125.7       125.5       125.4       125.3       125.2       125.1    
        125.0       125.0       124.9       124.7       124.5       124.2       123.9       123.6       123.3       122.9    
        122.6       122.1       121.7       121.2       120.9       120.7       120.5       120.3       119.9       119.2    
        118.3       116.7       114.1       109.4       102.2       93.00       99.00    
0  7    99.00       123.0       123.7       123.9       124.0       124.0       123.9       123.8       123.8       123.7    
        123.7       123.6       123.5       123.4       123.2       122.9       122.7       122.4       122.1       121.7    
        121.3       120.9       120.4       120.0       119.6       119.4       119.2       119.0       118.6       117.8    
        116.8       115.1       112.0       107.0       101.1       88.00       99.00    
0  8    99.00       120.0       121.9       122.5       122.7       122.8       122.8       122.8       122.7       122.7    
        122.7       122.6       122.5       122.4       122.2       122.0       121.7       121.5       121.1       120.8    
        120.4       119.9       119.5       118.9       118.6       118.4       118.1       117.9       117.5       116.7    
        115.5       113.6       110.3       105.5       99.88       86.00       99.00    
0  9    99.00       118.0       120.4       121.4       121.8       122.0       122.0       122.0       122.0       121.9    
        121.9       121.9       121.8       121.7       121.5       121.3       121.0       120.7       120.4       120.0    
        119.6       119.2       118.7       118.2       117.8       117.5       117.3       117.1       116.6       115.8    
        114.6       112.5       109.2       104.5       99.14       85.50       99.00    
0 10    99.00       116.0       119.4       120.6       121.1       121.3       121.4       121.4       121.4       121.4    
        121.3       121.3       121.3       121.1       121.0       120.7       120.5       120.2       119.8       119.5    
        119.0       118.6       118.1       117.5       117.1       116.9       116.6       116.4       115.9       115.1    
        113.8       111.7       108.4       103.8       98.52       85.00       99.00    
0 11    99.00       115.5       118.7       120.0       120.6       120.8       120.9       120.9       120.9       120.9    
        120.9       120.9       120.8       120.7       120.5       120.3       120.0       119.7       119.4       119.0    
        118.6       118.1       117.6       117.0       116.6       116.3       116.1       115.8       115.3       114.5    
        113.1       111.0       107.7       103.1       97.97       84.50       99.00    
0 12    99.00       115.0       118.3       119.6       120.2       120.5       120.6       120.6       120.6       120.6    
        120.6       120.6       120.6       120.4       120.3       120.0       119.8       119.4       119.1       118.7    
        118.2       117.7       117.2       116.6       116.2       116.0       115.7       115.4       114.9       114.1    
        112.7       110.5       107.2       102.7       97.56       84.00       99.00    
0 13    99.00       114.5       118.0       119.3       120.0       120.2       120.4       120.4       120.4       120.4    
        120.4       120.4       120.4       120.3       120.1       119.8       119.6       119.2       118.9       118.5    
        118.0       117.5       117.0       116.4       115.9       115.7       115.4       115.2       114.7       113.8    
        112.4       110.2       106.9       102.4       97.27       84.00       99.00    
0 14    99.00       114.0       117.7       119.1       119.7       120.0       120.1       120.2       120.2       120.2    
        120.2       120.2       120.2       120.1       119.9       119.6       119.3       119.0       118.7       118.2    
        117.8       117.3       116.7       116.1       115.7       115.4       115.2       114.9       114.4       113.5    
        112.1       109.9       106.6       102.1       96.96       84.00       99.00    
0 15    99.00       113.5       117.4       118.8       119.5       119.8       119.9       120.0       120.0       120.0    
        120.0       120.0       120.0       119.9       119.7       119.4       119.1       118.8       118.4       118.0    
        117.5       117.0       116.5       115.9       115.4       115.2       114.9       114.6       114.1       113.2    
        111.8       109.6       106.2       101.8       96.63       84.00       99.00    
0 16    99.00       113.0       117.1       118.6       119.3       119.6       119.7       119.8       119.8       119.8    
        119.8       119.8       119.8       119.7       119.5       119.2       118.9       118.6       118.2       117.8    
        117.3       116.8       116.2       115.6       115.1       114.9       114.6       114.3       113.8       112.9    
        111.4       109.2       105.9       101.4       96.27       84.00       99.00    
0 17    99.00       112.5       116.8       118.3       119.0       119.3       119.5       119.6       119.6       119.6    
        119.6       119.6       119.6       119.4       119.2       119.0       118.7       118.4       118.0       117.6    
        117.1       116.5       115.9       115.3       114.8       114.6       114.3       114.0       113.5       112.5    
        111.1       108.8       105.5       101.1       95.89       84.00       99.00    
0 18    99.00       112.0       116.5       118.0       118.8       119.1       119.3       119.4       119.4       119.4    
        119.4       119.4       119.3       119.2       119.0       118.8       118.5       118.2       117.8       117.3    
        116.8       116.3       115.7       115.0       114.5       114.3       114.0       113.7       113.1       112.2    
        110.7       108.4       105.1       100.7       95.48       84.00       99.00    
0 19    99.00       111.5       116.2       117.8       118.6       118.9       119.1       119.1       119.2       119.2    
        119.2       119.1       119.1       119.0       118.8       118.6       118.3       117.9       117.5       117.1    
        116.6       116.0       115.4       114.7       114.2       113.9       113.7       113.4       112.8       111.8    
        110.3       108.0       104.8       100.4       95.05       84.00       99.00    
0 20    99.00       111.3       115.9       117.5       118.3       118.7       118.8       118.9       118.9       119.0    
        118.9       118.9       118.9       118.7       118.6       118.3       118.0       117.7       117.3       116.8    
        116.3       115.7       115.1       114.4       113.9       113.6       113.3       113.0       112.4       111.4    
        109.9       107.6       104.3       99.96       94.57       84.00       99.00    
0 21    99.00       111.0       115.6       117.3       118.1       118.4       118.6       118.7       118.7       118.7    
        118.7       118.7       118.6       118.5       118.3       118.1       117.8       117.4       117.0       116.6    
        116.0       115.5       114.8       114.1       113.6       113.3       113.0       112.6       112.0       111.0    
        109.4       107.1       103.9       99.54       94.06       84.00       99.00    
0 22    99.00       110.8       115.3       117.0       117.8       118.2       118.4       118.5       118.5       118.5    
        118.5       118.5       118.4       118.3       118.1       117.9       117.6       117.2       116.8       116.3    
        115.8       115.2       114.5       113.8       113.2       112.9       112.6       112.2       111.6       110.5    
        108.9       106.6       103.5       99.11       93.49       84.00       99.00    
0 23    99.00       110.6       115.0       116.8       117.6       118.0       118.2       118.3       118.3       118.3    
        118.3       118.2       118.2       118.1       117.9       117.6       117.3       117.0       116.5       116.0    
        115.5       114.9       114.2       113.4       112.8       112.5       112.2       111.8       111.2       110.0    
        108.4       106.1       103.0       98.66       92.88       84.00       99.00    
0 24    99.00       110.4       114.8       116.5       117.4       117.8       118.0       118.0       118.1       118.0    
        118.0       118.0       118.0       117.8       117.6       117.4       117.1       116.7       116.3       115.8    
        115.2       114.6       113.9       113.0       112.5       112.1       111.8       111.4       110.7       109.5    
        107.8       105.4       102.5       98.19       92.19       84.00       99.00    
0 25    99.00       109.0       114.5       116.3       117.1       117.5       117.7       117.8       117.8       117.8    
        117.8       117.8       117.7       117.6       117.4       117.1       116.8       116.5       116.0       115.5    
        114.9       114.3       113.5       112.7       112.0       111.7       111.3       110.9       110.2       108.9    
        107.1       104.7       102.0       97.69       91.41       84.00       99.00    
0 26    99.00       108.0       114.1       115.9       116.8       117.2       117.4       117.5       117.5       117.5    
        117.5       117.4       117.4       117.2       117.0       116.8       116.5       116.1       115.6       115.1    
        114.5       113.8       113.0       112.1       111.4       111.0       110.6       110.1       109.3       107.8    
        105.8       103.5       101.1       96.90       89.97       84.00       99.00    
0 27    99.00       107.0       113.5       115.4       116.3       116.7       116.9       117.0       117.0       117.0    
        117.0       117.0       116.9       116.8       116.6       116.3       116.0       115.6       115.1       114.5    
        113.9       113.1       112.2       111.2       110.4       109.9       109.4       108.9       107.9       106.2    
        103.8       101.5       99.87       95.74       85.00       84.00       99.00    
0 28    99.00       106.0       112.9       114.9       115.8       116.2       116.4       116.4       116.4       116.4    
        116.4       116.4       116.3       116.2       116.0       115.7       115.4       115.0       114.5       113.9    
        113.1       112.3       111.3       110.1       109.1       108.5       107.9       107.3       106.1       104.2    
        101.5       99.29       97.99       86.00       99.00       99.00       99.00    
0 29    99.00       105.0       112.2       114.2       115.1       115.5       115.6       115.7       115.7       115.7    
        115.7       115.6       115.6       115.4       115.2       115.0       114.6       114.2       113.6       113.0    
        112.2       111.2       110.0       108.4       107.1       106.4       105.7       105.0       103.6       101.4    
        93.00       96.00       95.27       87.00       99.00       99.00       99.00    
0 30    99.00       103.0       111.4       113.4       114.2       114.6       114.8       114.8       114.8       114.8    
        114.8       114.7       114.7       114.6       114.3       114.1       113.7       113.2       112.7       112.0    
        111.1       110.0       108.6       106.2       103.5       100.0       99.00       97.00       96.00       94.00    
        93.00       99.00       90.00       99.00       99.00       99.00       99.00    
0 31    99.00       102.0       110.6       112.4       113.3       113.7       113.8       113.8       113.8       113.8    
        113.8       113.8       113.7       113.6       113.4       113.1       112.7       112.3       111.7       110.9    
        110.0       108.9       107.3       104.8       102.4       100.0       99.00       99.00       99.00       99.00    
        99.00       99.00       99.00       99.00       99.00       99.00       99.00    
0 32    99.00       101.0       109.6       111.3       112.2       112.5       112.7       112.7       112.7       112.7    
        112.7       112.7       112.7       112.6       112.4       112.1       111.7       111.2       110.6       109.8    
        108.9       107.7       106.1       103.7       101.6       100.0       99.00       99.00       99.00       99.00    
        99.00       99.00       99.00       99.00       99.00       99.00       99.00    
0 33    99.00       100.0       108.6       110.2       110.9       111.2       111.3       111.4       111.4       111.4    
        111.4       111.4       111.4       111.3       111.1       110.9       110.5       110.0       109.3       108.5    
        107.5       106.3       104.9       102.6       100.0       100.0       99.00       99.00       99.00       99.00    
        99.00       99.00       99.00       99.00       99.00       99.00       99.00    
0 34    99.00       100.0       107.3       109.0       109.6       109.8       109.9       110.0       110.0       110.0    
        110.0       110.0       109.9       109.8       109.7       109.4       109.1       108.5       107.7       106.8    
        105.9       104.9       103.7       101.0       99.00       99.00       99.00       99.00       99.00       99.00    
        99.00       99.00       99.00       99.00       99.00       99.00       99.00    
0 35    99.00       99.00       100.0       107.7       108.2       108.2       108.3       108.3       108.3       108.3    
        108.3       108.2       108.2       108.1       108.0       107.8       107.4       106.8       105.8       103.0    
        102.0       102.0       102.0       99.00       99.00       99.00       99.00       99.00       99.00       99.00    
        99.00       99.00       99.00       99.00       99.00       99.00       99.00    
0 36    99.00       99.00       100.0       106.2       106.3       105.7       104.0       104.0       104.0       104.0    
        104.0       104.0       104.0       104.0       105.0       105.0       104.0       104.0       103.0       99.00    
        99.00       99.00       99.00       99.00       99.00       99.00       99.00       99.00       99.00       99.00    
        99.00       99.00       99.00       99.00       99.00       99.00       99.00    
0 37    99.00       99.00       100.0       104.4       104.3       103.0       99.00       99.00       99.00       99.00    
        99.00       99.00       99.00       99.00       99.00       99.00       99.00       99.00       99.00       99.00    
        99.00       99.00       99.00       99.00       99.00       99.00       99.00       99.00       99.00       99.00    
        99.00       99.00       99.00       99.00       99.00       99.00       99.00    
0 38    99.00       99.00       100.0       101.0       102.0       99.00       99.00       99.00       99.00       99.00    
        99.00       99.00       99.00       99.00       99.00       99.00       99.00       99.00       99.00       99.00    
        99.00       99.00       99.00       99.00       99.00       99.00       99.00       99.00       99.00       99.00    
        99.00       99.00       99.00       99.00       99.00       99.00       99.00    
0 39    99.00       99.00       99.00       99.00       99.00       99.00       99.00       99.00       99.00       99.00    
        99.00       99.00       99.00       99.00       99.00       99.00       99.00       99.00       99.00       99.00    
        99.00       99.00       99.00       99.00       99.00       99.00       99.00       99.00       99.00       99.00    
        99.00       99.00       99.00       99.00       99.00       99.00       99.00    
0HEAD PRINT FORMAT IS FORMAT NUMBER   4    DRAWDOWN PRINT FORMAT IS FORMAT NUMBER   0
0HEADS WILL BE SAVED ON UNIT 30    DRAWDOWNS WILL BE SAVED ON UNIT  0
0OUTPUT CONTROL IS SPECIFIED EVERY TIME STEP
0                                                    COLUMN TO ROW ANISOTROPY =   1.000000    
0


                                                  DELR WILL BE READ ON UNIT 11 USING FORMAT: (8E10.0)            
                              -------------------------------------------------------------------------------

   20.000       600.00       300.00       200.00       140.00       100.00       80.000       60.000       30.000       30.000    
   30.000       30.000       60.000       80.000       80.000       80.000       80.000       80.000       80.000       80.000    
   80.000       80.000       80.000       80.000       30.000       30.000       30.000       30.000       80.000       100.00    
   140.00       200.00       300.00       400.00       400.00       520.00       20.000    
0


                                                  DELC WILL BE READ ON UNIT 11 USING FORMAT: (8E10.0)            
                              -------------------------------------------------------------------------------

   20.000       400.00       400.00       400.00       400.00       300.00       200.00       140.00       100.00       80.000    
   60.000       30.000       30.000       30.000       30.000       30.000       30.000       30.000       30.000       30.000    
   30.000       30.000       30.000       30.000       30.000       60.000       60.000       80.000       100.00       100.00    
   100.00       100.00       100.00       100.00       100.00       100.00       100.00       100.00       20.000    
0                                                        PRIMARY STORAGE COEF =   .2800000     FOR LAYER  1
0                                                       HYD. COND. ALONG ROWS =   .4920000E-03 FOR LAYER  1
0


                                                BOTTOM FOR LAYER  1 WILL BE READ ON UNIT 11 USING FORMAT: (20F4.0)            
                              ------------------------------------------------------------------------------------------------

            1           2           3           4           5           6           7           8           9          10
           11          12          13          14          15          16          17          18          19          20
           21          22          23          24          25          26          27          28          29          30
           31          32          33          34          35          36          37
 .............................................................................................................................
0  1    .0000       .0000       .0000       .0000       .0000       .0000       .0000       .0000       .0000       .0000    
        .0000       .0000       .0000       .0000       .0000       .0000       .0000       .0000       .0000       .0000    
        .0000       .0000       .0000       .0000       .0000       .0000       .0000       .0000       .0000       .0000    
        .0000       .0000       .0000       .0000       .0000       .0000       .0000    
0  2    .0000       100.0       100.0       100.0       100.0       100.0       100.0       100.0       100.0       100.0    
        100.0       100.0       100.0       100.0       100.0       100.0       100.0       100.0       100.0       100.0    
        100.0       100.0       100.0       100.0       100.0       100.0       100.0       100.0       100.0       100.0    
        100.0       100.0       .0000       .0000       .0000       .0000       .0000    
0  3    .0000       100.0       100.0       100.0       100.0       100.0       100.0       100.0       100.0       100.0    
        100.0       100.0       100.0       100.0       100.0       100.0       100.0       100.0       100.0       100.0    
        100.0       100.0       100.0       100.0       100.0       100.0       100.0       100.0       100.0       100.0    
        100.0       100.0       100.0       .0000       .0000       .0000       .0000    
0  4    .0000       100.0       100.0       100.0       100.0       100.0       100.0       100.0       100.0       100.0    
        100.0       100.0       100.0       100.0       100.0       100.0       100.0       100.0       100.0       100.0    
        100.0       100.0       100.0       100.0       100.0       100.0       100.0       100.0       100.0       100.0    
        100.0       100.0       100.0       100.0       .0000       .0000       .0000    
0  5    .0000       100.0       100.0       100.0       100.0       100.0       100.0       100.0       100.0       100.0    
        100.0       100.0       100.0       100.0       100.0       100.0       100.0       100.0       100.0       100.0    
        100.0       100.0       100.0       100.0       100.0       100.0       100.0       100.0       100.0       100.0    
        100.0       100.0       100.0       95.00       95.00       .0000       .0000    
0  6    .0000       100.0       100.0       100.0       100.0       100.0       100.0       100.0       100.0       100.0    
        100.0       100.0       100.0       100.0       100.0       100.0       100.0       100.0       100.0       100.0    
        100.0       100.0       100.0       100.0       100.0       100.0       100.0       100.0       100.0       100.0    
        100.0       100.0       100.0       100.0       95.00       90.00       .0000    
0  7    .0000       100.0       100.0       100.0       100.0       100.0       100.0       100.0       100.0       100.0    
        100.0       100.0       100.0       100.0       100.0       100.0       100.0       100.0       100.0       100.0    
        100.0       100.0       100.0       100.0       100.0       100.0       100.0       100.0       100.0       100.0    
        100.0       100.0       100.0       95.00       90.00       85.00       .0000    
0  8    .0000       100.0       100.0       100.0       100.0       100.0       100.0       100.0       100.0       100.0    
        100.0       100.0       100.0       100.0       100.0       100.0       100.0       100.0       100.0       100.0    
        100.0       100.0       100.0       100.0       100.0       100.0       100.0       100.0       100.0       100.0    
        100.0       100.0       95.00       90.00       85.00       80.00       .0000    
0  9    .0000       95.00       100.0       100.0       100.0       100.0       100.0       100.0       100.0       100.0    
        100.0       100.0       100.0       100.0       100.0       100.0       100.0       100.0       100.0       100.0    
        100.0       100.0       100.0       100.0       100.0       100.0       100.0       100.0       100.0       100.0    
        100.0       98.00       93.00       85.00       83.00       80.00       .0000    
0 10    .0000       90.00       95.00       100.0       100.0       100.0       100.0       100.0       100.0       100.0    
        100.0       100.0       100.0       100.0       100.0       100.0       100.0       100.0       100.0       100.0    
        100.0       100.0       100.0       100.0       100.0       100.0       100.0       100.0       100.0       100.0    
        100.0       98.00       93.00       85.00       83.00       80.00       .0000    
0 11    .0000       90.00       95.00       100.0       100.0       100.0       100.0       100.0       100.0       100.0    
        100.0       100.0       100.0       100.0       100.0       100.0       100.0       100.0       100.0       100.0    
        100.0       100.0       100.0       100.0       100.0       100.0       100.0       100.0       100.0       100.0    
        100.0       98.00       93.00       85.00       83.00       80.00       .0000    
0 12    .0000       90.00       95.00       100.0       100.0       100.0       100.0       100.0       100.0       100.0    
        100.0       100.0       100.0       100.0       100.0       100.0       100.0       100.0       100.0       100.0    
        100.0       100.0       100.0       100.0       100.0       100.0       100.0       100.0       100.0       100.0    
        100.0       98.00       93.00       85.00       83.00       80.00       .0000    
0 13    .0000       90.00       95.00       100.0       100.0       100.0       100.0       100.0       100.0       100.0    
        100.0       100.0       101.0       100.0       100.0       100.0       100.0       100.0       100.0       100.0    
        100.0       100.0       100.0       100.0       100.0       100.0       100.0       100.0       100.0       100.0    
        100.0       98.00       93.00       85.00       83.00       80.00       .0000    
0 14    .0000       90.00       95.00       100.0       100.0       100.0       100.0       100.0       100.0       100.0    
        100.0       101.0       102.0       101.0       100.0       100.0       100.0       100.0       100.0       100.0    
        100.0       100.0       100.0       100.0       100.0       100.0       100.0       100.0       100.0       100.0    
        100.0       98.00       93.00       85.00       83.00       80.00       .0000    
0 15    .0000       90.00       95.00       100.0       100.0       100.0       100.0       100.0       100.0       100.0    
        101.0       102.0       103.0       102.0       101.0       100.0       100.0       100.0       100.0       100.0    
        100.0       100.0       100.0       100.0       100.0       100.0       100.0       100.0       100.0       100.0    
        100.0       98.00       93.00       85.00       83.00       80.00       .0000    
0 16    .0000       90.00       95.00       100.0       100.0       100.0       100.0       100.0       100.0       101.0    
        102.0       103.0       104.0       103.0       102.0       101.0       100.0       100.0       100.0       100.0    
        100.0       100.0       100.0       100.0       100.0       100.0       100.0       100.0       100.0       100.0    
        100.0       98.00       93.00       85.00       83.00       80.00       .0000    
0 17    .0000       90.00       95.00       100.0       100.0       100.0       100.0       100.0       101.0       102.0    
        103.0       104.0       105.0       104.0       103.0       102.0       101.0       101.0       101.0       101.0    
        100.0       100.0       100.0       100.0       100.0       100.0       100.0       100.0       100.0       100.0    
        100.0       98.00       93.00       85.00       83.00       80.00       .0000    
0 18    .0000       90.00       95.00       100.0       100.0       100.0       100.0       101.0       102.0       103.0    
        104.0       105.0       105.0       104.0       103.0       102.0       101.0       101.0       101.0       101.0    
        100.0       100.0       100.0       100.0       100.0       100.0       100.0       100.0       100.0       100.0    
        100.0       98.00       93.00       85.00       83.00       80.00       .0000    
0 19    .0000       90.00       95.00       100.0       100.0       100.0       100.0       101.0       103.0       104.0    
        105.0       105.0       105.0       104.0       103.0       102.0       101.0       101.0       101.0       101.0    
        100.0       100.0       100.0       100.0       100.0       100.0       100.0       100.0       100.0       100.0    
        100.0       98.00       93.00       85.00       83.00       80.00       .0000    
0 20    .0000       90.00       95.00       100.0       100.0       100.0       100.0       101.0       103.0       104.0    
        105.0       105.0       104.0       104.0       103.0       102.0       101.0       101.0       101.0       100.0    
        100.0       100.0       100.0       100.0       100.0       100.0       100.0       100.0       100.0       100.0    
        100.0       98.00       93.00       85.00       83.00       80.00       .0000    
0 21    .0000       90.00       95.00       100.0       100.0       100.0       100.0       101.0       103.0       104.0    
        105.0       105.0       104.0       104.0       103.0       102.0       101.0       101.0       101.0       100.0    
        100.0       100.0       100.0       100.0       100.0       100.0       100.0       100.0       100.0       100.0    
        100.0       98.00       93.00       85.00       83.00       80.00       .0000    
0 22    .0000       90.00       95.00       100.0       100.0       100.0       100.0       102.0       103.0       104.0    
        105.0       105.0       104.0       103.0       102.0       102.0       101.0       101.0       101.0       100.0    
        100.0       100.0       100.0       100.0       100.0       100.0       100.0       100.0       100.0       100.0    
        100.0       98.00       93.00       85.00       83.00       80.00       .0000    
0 23    .0000       90.00       95.00       100.0       100.0       100.0       101.0       102.0       103.0       104.0    
        105.0       104.0       104.0       103.0       102.0       102.0       101.0       101.0       101.0       100.0    
        100.0       100.0       100.0       100.0       100.0       100.0       100.0       100.0       100.0       100.0    
        100.0       98.00       93.00       85.00       83.00       80.00       .0000    
0 24    .0000       90.00       95.00       100.0       100.0       100.0       101.0       102.0       103.0       105.0    
        105.0       104.0       104.0       103.0       102.0       102.0       101.0       101.0       101.0       100.0    
        100.0       100.0       100.0       100.0       100.0       100.0       100.0       100.0       100.0       100.0    
        100.0       98.00       93.00       85.00       83.00       80.00       .0000    
0 25    .0000       90.00       95.00       100.0       100.0       100.0       101.0       102.0       103.0       105.0    
        104.0       104.0       104.0       103.0       102.0       102.0       101.0       101.0       101.0       100.0    
        100.0       100.0       100.0       100.0       100.0       100.0       100.0       100.0       100.0       100.0    
        100.0       98.00       93.00       85.00       83.00       80.00       .0000    
0 26    .0000       90.00       95.00       100.0       100.0       100.0       101.0       103.0       105.0       105.0    
        104.0       104.0       104.0       103.0       102.0       102.0       101.0       101.0       101.0       101.0    
        100.0       100.0       100.0       100.0       100.0       100.0       100.0       100.0       100.0       100.0    
        100.0       98.00       93.00       85.00       83.00       80.00       .0000    
0 27    .0000       90.00       96.00       100.0       100.0       101.0       102.0       104.0       105.0       104.0    
        104.0       104.0       104.0       103.0       102.0       101.0       101.0       101.0       101.0       101.0    
        100.0       100.0       100.0       100.0       100.0       100.0       100.0       100.0       100.0       98.00    
        98.00       96.00       93.00       85.00       83.00       80.00       .0000    
0 28    .0000       91.00       97.00       100.0       100.0       101.0       103.0       105.0       105.0       104.0    
        104.0       104.0       103.0       103.0       102.0       101.0       101.0       101.0       101.0       101.0    
        100.0       100.0       100.0       100.0       100.0       100.0       99.00       98.00       98.00       96.00    
        93.00       92.00       93.00       85.00       83.00       80.00       .0000    
0 29    .0000       92.00       98.00       100.0       100.0       101.0       103.0       105.0       104.0       104.0    
        104.0       104.0       103.0       102.0       102.0       101.0       101.0       101.0       101.0       101.0    
        100.0       100.0       100.0       100.0       98.00       98.00       98.00       96.00       96.00       94.00    
        91.00       90.00       90.00       85.00       83.00       80.00       .0000    
0 30    .0000       96.00       99.00       101.0       102.0       103.0       105.0       105.0       104.0       104.0    
        104.0       104.0       103.0       103.0       102.0       102.0       101.0       101.0       101.0       101.0    
        101.0       100.0       100.0       100.0       98.00       98.00       97.00       95.00       94.00       92.00    
        91.00       .0000       88.00       85.00       83.00       80.00       .0000    
0 31    .0000       97.00       100.0       102.0       103.0       104.0       105.0       105.0       104.0       104.0    
        103.0       103.0       103.0       103.0       102.0       102.0       101.0       101.0       101.0       101.0    
        101.0       101.0       101.0       100.0       98.00       98.00       .0000       .0000       .0000       .0000    
        .0000       .0000       .0000       .0000       .0000       .0000       .0000    
0 32    .0000       97.00       100.0       102.0       104.0       105.0       105.0       104.0       104.0       103.0    
        103.0       103.0       103.0       103.0       102.0       102.0       102.0       101.0       101.0       101.0    
        101.0       101.0       101.0       100.0       98.00       98.00       .0000       .0000       .0000       .0000    
        .0000       .0000       .0000       .0000       .0000       .0000       .0000    
0 33    .0000       98.00       99.00       101.0       103.0       104.0       104.0       104.0       104.0       104.0    
        104.0       104.0       104.0       104.0       103.0       103.0       103.0       103.0       102.0       102.0    
        101.0       100.0       99.00       99.00       98.00       98.00       .0000       .0000       .0000       .0000    
        .0000       .0000       .0000       .0000       .0000       .0000       .0000    
0 34    .0000       98.00       99.00       100.0       101.0       102.0       102.0       102.0       102.0       102.0    
        102.0       102.0       102.0       102.0       102.0       102.0       102.0       102.0       101.0       101.0    
        100.0       100.0       99.00       99.00       .0000       .0000       .0000       .0000       .0000       .0000    
        .0000       .0000       .0000       .0000       .0000       .0000       .0000    
0 35    .0000       .0000       99.00       100.0       101.0       102.0       102.0       102.0       102.0       102.0    
        102.0       102.0       102.0       102.0       102.0       102.0       102.0       102.0       101.0       101.0    
        100.0       100.0       100.0       .0000       .0000       .0000       .0000       .0000       .0000       .0000    
        .0000       .0000       .0000       .0000       .0000       .0000       .0000    
0 36    .0000       .0000       99.00       100.0       101.0       102.0       102.0       102.0       102.0       102.0    
        102.0       102.0       102.0       102.0       102.0       102.0       102.0       102.0       101.0       .0000    
        .0000       .0000       .0000       .0000       .0000       .0000       .0000       .0000       .0000       .0000    
        .0000       .0000       .0000       .0000       .0000       .0000       .0000    
0 37    .0000       .0000       99.00       99.00       99.00       99.00       .0000       .0000       .0000       .0000    
        .0000       .0000       .0000       .0000       .0000       .0000       .0000       .0000       .0000       .0000    
        .0000       .0000       .0000       .0000       .0000       .0000       .0000       .0000       .0000       .0000    
        .0000       .0000       .0000       .0000       .0000       .0000       .0000    
0 38    .0000       .0000       99.00       99.00       99.00       .0000       .0000       .0000       .0000       .0000    
        .0000       .0000       .0000       .0000       .0000       .0000       .0000       .0000       .0000       .0000    
        .0000       .0000       .0000       .0000       .0000       .0000       .0000       .0000       .0000       .0000    
        .0000       .0000       .0000       .0000       .0000       .0000       .0000    
0 39    .0000       .0000       .0000       .0000       .0000       .0000       .0000       .0000       .0000       .0000    
        .0000       .0000       .0000       .0000       .0000       .0000       .0000       .0000       .0000       .0000    
        .0000       .0000       .0000       .0000       .0000       .0000       .0000       .0000       .0000       .0000    
        .0000       .0000       .0000       .0000       .0000       .0000       .0000    
0


                                                         SOLUTION BY THE STRONGLY IMPLICIT PROCEDURE
                                                         -------------------------------------------
0                                               MAXIMUM ITERATIONS ALLOWED FOR CLOSURE =       50
                                                                ACCELERATION PARAMETER =     1.0000    
                                                     HEAD CHANGE CRITERION FOR CLOSURE =     .10000E-01
                                                     SIP HEAD CHANGE PRINTOUT INTERVAL =        1
0
    5 ITERATION PARAMETERS CALCULATED FROM SPECIFIED WSEED =  .00200000 :

             .0000000E+00   .7885258E+00   .9552786E+00   .9905426E+00   .9980000E+00
1                                                   STRESS PERIOD NO.   1, LENGTH =   .9720000E+09
                                                    ----------------------------------------------

                                                    NUMBER OF TIME STEPS =    20

                                                     MULTIPLIER FOR DELT =     1.500

                                                  INITIAL TIME STEP SIZE =   146198.1    
0


                                              RECHARGE WILL BE READ ON UNIT 18 USING FORMAT: (20f4.0)            
                              -----------------------------------------------------------------------------------

            1           2           3           4           5           6           7           8           9          10
           11          12          13          14          15          16          17          18          19          20
           21          22          23          24          25          26          27          28          29          30
           31          32          33          34          35          36          37
 .............................................................................................................................
0  1   6.3400E-08  6.3400E-08  6.3400E-08  6.3400E-08  6.3400E-08  6.3400E-08  6.3400E-08  6.3400E-08  6.3400E-08  6.3400E-08
       6.3400E-08  6.3400E-08  6.3400E-08  6.3400E-08  6.3400E-08  6.3400E-08  6.3400E-08  6.3400E-08  6.3400E-08  6.3400E-08
       6.3400E-08  6.3400E-08  6.3400E-08  6.3400E-08  6.3400E-08  6.3400E-08  6.3400E-08  6.3400E-08  6.3400E-08  6.3400E-08
       6.3400E-08  6.3400E-08  6.3400E-08  6.3400E-08  6.3400E-08  6.3400E-08  6.3400E-08
0  2   6.3400E-08  6.3400E-08  6.3400E-08  6.3400E-08  6.3400E-08  6.3400E-08  6.3400E-08  6.3400E-08  6.3400E-08  6.3400E-08
       6.3400E-08  6.3400E-08  6.3400E-08  6.3400E-08  6.3400E-08  6.3400E-08  6.3400E-08  6.3400E-08  6.3400E-08  6.3400E-08
       6.3400E-08  6.3400E-08  6.3400E-08  6.3400E-08  6.3400E-08  6.3400E-08  6.3400E-08  6.3400E-08  6.3400E-08  6.3400E-08
       6.3400E-08  6.3400E-08  6.3400E-08  6.3400E-08  6.3400E-08  6.3400E-08  6.3400E-08
0  3   6.3400E-08  6.3400E-08  6.3400E-08  6.3400E-08  6.3400E-08  6.3400E-08  6.3400E-08  6.3400E-08  6.3400E-08  6.3400E-08
       6.3400E-08  6.3400E-08  6.3400E-08  6.3400E-08  6.3400E-08  6.3400E-08  6.3400E-08  6.3400E-08  6.3400E-08  6.3400E-08
       6.3400E-08  6.3400E-08  6.3400E-08  6.3400E-08  6.3400E-08  6.3400E-08  6.3400E-08  6.3400E-08  6.3400E-08  6.3400E-08
       6.3400E-08  6.3400E-08  6.3400E-08  6.3400E-08  6.3400E-08  6.3400E-08  6.3400E-08
0  4   6.3400E-08  6.3400E-08  6.3400E-08  6.3400E-08  6.3400E-08  6.3400E-08  6.3400E-08  6.3400E-08  6.3400E-08  6.3400E-08
       6.3400E-08  6.3400E-08  6.3400E-08  6.3400E-08  6.3400E-08  6.3400E-08  6.3400E-08  6.3400E-08  6.3400E-08  6.3400E-08
       6.3400E-08  6.3400E-08  6.3400E-08  6.3400E-08  6.3400E-08  6.3400E-08  6.3400E-08  6.3400E-08  6.3400E-08  6.3400E-08
       6.3400E-08  6.3400E-08  6.3400E-08  6.3400E-08  6.3400E-08  6.3400E-08  6.3400E-08
0  5   6.3400E-08  6.3400E-08  6.3400E-08  6.3400E-08  6.3400E-08  6.3400E-08  6.3400E-08  6.3400E-08  6.3400E-08  6.3400E-08
       6.3400E-08  6.3400E-08  6.3400E-08  6.3400E-08  6.3400E-08  6.3400E-08  6.3400E-08  6.3400E-08  6.3400E-08  6.3400E-08
       6.3400E-08  6.3400E-08  6.3400E-08  6.3400E-08  6.3400E-08  6.3400E-08  6.3400E-08  6.3400E-08  6.3400E-08  6.3400E-08
       6.3400E-08  6.3400E-08  6.3400E-08  6.3400E-08  6.3400E-08  6.3400E-08  6.3400E-08
0  6   6.3400E-08  6.3400E-08  6.3400E-08  6.3400E-08  6.3400E-08  6.3400E-08  6.3400E-08  6.3400E-08  6.3400E-08  6.3400E-08
       6.3400E-08  6.3400E-08  6.3400E-08  6.3400E-08  6.3400E-08  6.3400E-08  6.3400E-08  6.3400E-08  6.3400E-08  6.3400E-08
       6.3400E-08  6.3400E-08  6.3400E-08  6.3400E-08  6.3400E-08  6.3400E-08  6.3400E-08  6.3400E-08  6.3400E-08  6.3400E-08
       6.3400E-08  6.3400E-08  6.3400E-08  6.3400E-08  6.3400E-08  6.3400E-08  6.3400E-08
0  7   6.3400E-08  6.3400E-08  6.3400E-08  6.3400E-08  6.3400E-08  6.3400E-08  6.3400E-08  6.3400E-08  6.3400E-08  6.3400E-08
       6.3400E-08  6.3400E-08  6.3400E-08  6.3400E-08  6.3400E-08  6.3400E-08  6.3400E-08  6.3400E-08  6.3400E-08  6.3400E-08
       6.3400E-08  6.3400E-08  6.3400E-08  6.3400E-08  6.3400E-08  6.3400E-08  6.3400E-08  6.3400E-08  6.3400E-08  6.3400E-08
       6.3400E-08  6.3400E-08  6.3400E-08  6.3400E-08  6.3400E-08  6.3400E-08  6.3400E-08
0  8   6.3400E-08  6.3400E-08  6.3400E-08  6.3400E-08  6.3400E-08  6.3400E-08  6.3400E-08  6.3400E-08  6.3400E-08  6.3400E-08
       6.3400E-08  6.3400E-08  6.3400E-08  6.3400E-08  6.3400E-08  6.3400E-08  6.3400E-08  6.3400E-08  6.3400E-08  6.3400E-08
       6.3400E-08  6.3400E-08  6.3400E-08  6.3400E-08  6.3400E-08  6.3400E-08  6.3400E-08  6.3400E-08  6.3400E-08  6.3400E-08
       6.3400E-08  6.3400E-08  6.3400E-08  6.3400E-08  6.3400E-08  6.3400E-08  6.3400E-08
0  9   6.3400E-08  6.3400E-08  6.3400E-08  6.3400E-08  6.3400E-08  6.3400E-08  6.3400E-08  6.3400E-08  6.3400E-08  6.3400E-08
       6.3400E-08  6.3400E-08  6.3400E-08  6.3400E-08  6.3400E-08  6.3400E-08  6.3400E-08  6.3400E-08  6.3400E-08  6.3400E-08
       6.3400E-08  6.3400E-08  6.3400E-08  6.3400E-08  6.3400E-08  6.3400E-08  6.3400E-08  6.3400E-08  6.3400E-08  6.3400E-08
       6.3400E-08  6.3400E-08  6.3400E-08  6.3400E-08  6.3400E-08  6.3400E-08  6.3400E-08
0 10   6.3400E-08  6.3400E-08  6.3400E-08  6.3400E-08  6.3400E-08  6.3400E-08  6.3400E-08  6.3400E-08  6.3400E-08  6.3400E-08
       6.3400E-08  6.3400E-08  6.3400E-08  6.3400E-08  6.3400E-08  6.3400E-08  6.3400E-08  6.3400E-08  6.3400E-08  6.3400E-08
       6.3400E-08  6.3400E-08  6.3400E-08  6.3400E-08  6.3400E-08  6.3400E-08  6.3400E-08  6.3400E-08  6.3400E-08  6.3400E-08
       6.3400E-08  6.3400E-08  6.3400E-08  6.3400E-08  6.3400E-08  6.3400E-08  6.3400E-08
0 11   6.3400E-08  6.3400E-08  6.3400E-08  6.3400E-08  6.3400E-08  6.3400E-08  6.3400E-08  6.3400E-08  6.3400E-08  6.3400E-08
       6.3400E-08  6.3400E-08  6.3400E-08  6.3400E-08  6.3400E-08  6.3400E-08  6.3400E-08  6.3400E-08  6.3400E-08  6.3400E-08
       6.3400E-08  6.3400E-08  6.3400E-08  6.3400E-08  6.3400E-08  6.3400E-08  6.3400E-08  6.3400E-08  6.3400E-08  6.3400E-08
       6.3400E-08  6.3400E-08  6.3400E-08  6.3400E-08  6.3400E-08  6.3400E-08  6.3400E-08
0 12   6.3400E-08  6.3400E-08  6.3400E-08  6.3400E-08  6.3400E-08  6.3400E-08  6.3400E-08  6.3400E-08  6.3400E-08  6.3400E-08
       6.3400E-08  6.3400E-08  6.3400E-08  6.3400E-08  6.3400E-08  6.3400E-08  6.3400E-08  6.3400E-08  6.3400E-08  6.3400E-08
       6.3400E-08  6.3400E-08  6.3400E-08  6.3400E-08  6.3400E-08  6.3400E-08  6.3400E-08  6.3400E-08  6.3400E-08  6.3400E-08
       6.3400E-08  6.3400E-08  6.3400E-08  6.3400E-08  6.3400E-08  6.3400E-08  6.3400E-08
0 13   6.3400E-08  6.3400E-08  6.3400E-08  6.3400E-08  6.3400E-08  6.3400E-08  6.3400E-08  6.3400E-08  6.3400E-08  6.3400E-08
       6.3400E-08  6.3400E-08  6.3400E-08  6.3400E-08  6.3400E-08  6.3400E-08  6.3400E-08  6.3400E-08  6.3400E-08  6.3400E-08
       6.3400E-08  6.3400E-08  6.3400E-08  6.3400E-08  6.3400E-08  6.3400E-08  6.3400E-08  6.3400E-08  6.3400E-08  6.3400E-08
       6.3400E-08  6.3400E-08  6.3400E-08  6.3400E-08  6.3400E-08  6.3400E-08  6.3400E-08
0 14   6.3400E-08  6.3400E-08  6.3400E-08  6.3400E-08  6.3400E-08  6.3400E-08  6.3400E-08  6.3400E-08  6.3400E-08  6.3400E-08
       6.3400E-08  6.3400E-08  6.3400E-08  6.3400E-08  6.3400E-08  6.3400E-08  6.3400E-08  6.3400E-08  6.3400E-08  6.3400E-08
       6.3400E-08  6.3400E-08  6.3400E-08  6.3400E-08  6.3400E-08  6.3400E-08  6.3400E-08  6.3400E-08  6.3400E-08  6.3400E-08
       6.3400E-08  6.3400E-08  6.3400E-08  6.3400E-08  6.3400E-08  6.3400E-08  6.3400E-08
0 15   6.3400E-08  6.3400E-08  6.3400E-08  6.3400E-08  6.3400E-08  6.3400E-08  6.3400E-08  6.3400E-08  6.3400E-08  6.3400E-08
       6.3400E-08  6.3400E-08  6.3400E-08  6.3400E-08  6.3400E-08  6.3400E-08  6.3400E-08  6.3400E-08  6.3400E-08  6.3400E-08
       6.3400E-08  6.3400E-08  6.3400E-08  6.3400E-08  6.3400E-08  6.3400E-08  6.3400E-08  6.3400E-08  6.3400E-08  6.3400E-08
       6.3400E-08  6.3400E-08  6.3400E-08  6.3400E-08  6.3400E-08  6.3400E-08  6.3400E-08
0 16   6.3400E-08  6.3400E-08  6.3400E-08  6.3400E-08  6.3400E-08  6.3400E-08  6.3400E-08  6.3400E-08  6.3400E-08  6.3400E-08
       6.3400E-08  6.3400E-08  6.3400E-08  6.3400E-08  6.3400E-08  6.3400E-08  6.3400E-08  6.3400E-08  6.3400E-08  6.3400E-08
       6.3400E-08  6.3400E-08  6.3400E-08  6.3400E-08  6.3400E-08  6.3400E-08  6.3400E-08  6.3400E-08  6.3400E-08  6.3400E-08
       6.3400E-08  6.3400E-08  6.3400E-08  6.3400E-08  6.3400E-08  6.3400E-08  6.3400E-08
0 17   6.3400E-08  6.3400E-08  6.3400E-08  6.3400E-08  6.3400E-08  6.3400E-08  6.3400E-08  6.3400E-08  6.3400E-08  6.3400E-08
       6.3400E-08  6.3400E-08  6.3400E-08  6.3400E-08  6.3400E-08  6.3400E-08  6.3400E-08  6.3400E-08  6.3400E-08  6.3400E-08
       6.3400E-08  6.3400E-08  6.3400E-08  6.3400E-08  6.3400E-08  6.3400E-08  6.3400E-08  6.3400E-08  6.3400E-08  6.3400E-08
       6.3400E-08  6.3400E-08  6.3400E-08  6.3400E-08  6.3400E-08  6.3400E-08  6.3400E-08
0 18   6.3400E-08  6.3400E-08  6.3400E-08  6.3400E-08  6.3400E-08  6.3400E-08  6.3400E-08  6.3400E-08  6.3400E-08  6.3400E-08
       6.3400E-08  6.3400E-08  6.3400E-08  6.3400E-08  6.3400E-08  6.3400E-08  6.3400E-08  6.3400E-08   .0000       .0000    
       6.3400E-08  6.3400E-08  6.3400E-08  6.3400E-08  6.3400E-08  6.3400E-08  6.3400E-08  6.3400E-08  6.3400E-08  6.3400E-08
       6.3400E-08  6.3400E-08  6.3400E-08  6.3400E-08  6.3400E-08  6.3400E-08  6.3400E-08
0 19   6.3400E-08  6.3400E-08  6.3400E-08  6.3400E-08  6.3400E-08  6.3400E-08  6.3400E-08  6.3400E-08  6.3400E-08  6.3400E-08
       6.3400E-08  6.3400E-08  6.3400E-08  6.3400E-08  6.3400E-08  6.3400E-08  6.3400E-08   .0000       .0000       .0000    
       6.3400E-08  6.3400E-08  6.3400E-08  6.3400E-08  6.3400E-08  6.3400E-08  6.3400E-08  6.3400E-08  6.3400E-08  6.3400E-08
       6.3400E-08  6.3400E-08  6.3400E-08  6.3400E-08  6.3400E-08  6.3400E-08  6.3400E-08
0 20   6.3400E-08  6.3400E-08  6.3400E-08  6.3400E-08  6.3400E-08  6.3400E-08  6.3400E-08  6.3400E-08  6.3400E-08  6.3400E-08
       6.3400E-08  6.3400E-08  6.3400E-08  6.3400E-08  6.3400E-08  6.3400E-08   .0000       .0000       .0000       .0000    
        .0000      6.3400E-08  6.3400E-08  6.3400E-08  6.3400E-08  6.3400E-08  6.3400E-08  6.3400E-08  6.3400E-08  6.3400E-08
       6.3400E-08  6.3400E-08  6.3400E-08  6.3400E-08  6.3400E-08  6.3400E-08  6.3400E-08
0 21   6.3400E-08  6.3400E-08  6.3400E-08  6.3400E-08  6.3400E-08  6.3400E-08  6.3400E-08  6.3400E-08  6.3400E-08  6.3400E-08
       6.3400E-08  6.3400E-08  6.3400E-08  6.3400E-08  6.3400E-08  6.3400E-08   .0000       .0000       .0000       .0000    
        .0000      6.3400E-08  6.3400E-08  6.3400E-08  6.3400E-08  6.3400E-08  6.3400E-08  6.3400E-08  6.3400E-08  6.3400E-08
       6.3400E-08  6.3400E-08  6.3400E-08  6.3400E-08  6.3400E-08  6.3400E-08  6.3400E-08
0 22   6.3400E-08  6.3400E-08  6.3400E-08  6.3400E-08  6.3400E-08  6.3400E-08  6.3400E-08  6.3400E-08  6.3400E-08  6.3400E-08
       6.3400E-08  6.3400E-08  6.3400E-08  6.3400E-08  6.3400E-08   .0000       .0000       .0000       .0000       .0000    
        .0000      6.3400E-08  6.3400E-08  6.3400E-08  6.3400E-08  6.3400E-08  6.3400E-08  6.3400E-08  6.3400E-08  6.3400E-08
       6.3400E-08  6.3400E-08  6.3400E-08  6.3400E-08  6.3400E-08  6.3400E-08  6.3400E-08
0 23   6.3400E-08  6.3400E-08  6.3400E-08  6.3400E-08  6.3400E-08  6.3400E-08  6.3400E-08  6.3400E-08  6.3400E-08  6.3400E-08
       6.3400E-08  6.3400E-08  6.3400E-08  6.3400E-08   .0000       .0000       .0000       .0000       .0000       .0000    
        .0000       .0000      6.3400E-08  6.3400E-08  6.3400E-08  6.3400E-08  6.3400E-08  6.3400E-08  6.3400E-08  6.3400E-08
       6.3400E-08  6.3400E-08  6.3400E-08  6.3400E-08  6.3400E-08  6.3400E-08  6.3400E-08
0 24   6.3400E-08  6.3400E-08  6.3400E-08  6.3400E-08  6.3400E-08  6.3400E-08  6.3400E-08  6.3400E-08  6.3400E-08  6.3400E-08
       6.3400E-08  6.3400E-08  6.3400E-08   .0000       .0000       .0000       .0000       .0000       .0000       .0000    
        .0000       .0000      6.3400E-08  6.3400E-08  6.3400E-08  6.3400E-08  6.3400E-08  6.3400E-08  6.3400E-08  6.3400E-08
       6.3400E-08  6.3400E-08  6.3400E-08  6.3400E-08  6.3400E-08  6.3400E-08  6.3400E-08
0 25   6.3400E-08  6.3400E-08  6.3400E-08  6.3400E-08  6.3400E-08  6.3400E-08  6.3400E-08  6.3400E-08  6.3400E-08  6.3400E-08
       6.3400E-08  6.3400E-08   .0000       .0000       .0000       .0000       .0000       .0000       .0000       .0000    
        .0000       .0000       .0000      6.3400E-08  6.3400E-08  6.3400E-08  6.3400E-08  6.3400E-08  6.3400E-08  6.3400E-08
       6.3400E-08  6.3400E-08  6.3400E-08  6.3400E-08  6.3400E-08  6.3400E-08  6.3400E-08
0 26   6.3400E-08  6.3400E-08  6.3400E-08  6.3400E-08  6.3400E-08  6.3400E-08  6.3400E-08  6.3400E-08  6.3400E-08  6.3400E-08
       6.3400E-08   .0000       .0000       .0000       .0000       .0000       .0000       .0000       .0000       .0000    
        .0000       .0000       .0000      6.3400E-08  6.3400E-08  6.3400E-08  6.3400E-08  6.3400E-08  6.3400E-08  6.3400E-08
       6.3400E-08  6.3400E-08  6.3400E-08  6.3400E-08  6.3400E-08  6.3400E-08  6.3400E-08
0 27   6.3400E-08  6.3400E-08  6.3400E-08  6.3400E-08  6.3400E-08  6.3400E-08  6.3400E-08  6.3400E-08  6.3400E-08  6.3400E-08
       6.3400E-08   .0000       .0000       .0000       .0000       .0000       .0000       .0000       .0000       .0000    
        .0000       .0000       .0000       .0000      6.3400E-08  6.3400E-08  6.3400E-08  6.3400E-08  6.3400E-08  6.3400E-08
       6.3400E-08  6.3400E-08  6.3400E-08  6.3400E-08  6.3400E-08  6.3400E-08  6.3400E-08
0 28   6.3400E-08  6.3400E-08  6.3400E-08  6.3400E-08  6.3400E-08  6.3400E-08  6.3400E-08  6.3400E-08  6.3400E-08  6.3400E-08
       6.3400E-08   .0000       .0000       .0000       .0000       .0000       .0000       .0000       .0000       .0000    
        .0000       .0000       .0000       .0000       .0000      6.3400E-08  6.3400E-08  6.3400E-08  6.3400E-08  6.3400E-08
       6.3400E-08  6.3400E-08  6.3400E-08  6.3400E-08  6.3400E-08  6.3400E-08  6.3400E-08
0 29   6.3400E-08  6.3400E-08  6.3400E-08  6.3400E-08  6.3400E-08  6.3400E-08  6.3400E-08  6.3400E-08  6.3400E-08  6.3400E-08
       6.3400E-08   .0000       .0000       .0000       .0000       .0000       .0000       .0000       .0000       .0000    
        .0000       .0000       .0000       .0000      6.3400E-08  6.3400E-08  6.3400E-08  6.3400E-08  6.3400E-08  6.3400E-08
       6.3400E-08  6.3400E-08  6.3400E-08  6.3400E-08  6.3400E-08  6.3400E-08  6.3400E-08
0 30   6.3400E-08  6.3400E-08  6.3400E-08  6.3400E-08  6.3400E-08  6.3400E-08  6.3400E-08  6.3400E-08  6.3400E-08  6.3400E-08
       6.3400E-08   .0000       .0000       .0000       .0000       .0000       .0000       .0000       .0000       .0000    
        .0000       .0000       .0000       .0000      6.3400E-08  6.3400E-08  6.3400E-08  6.3400E-08  6.3400E-08  6.3400E-08
       6.3400E-08  6.3400E-08  6.3400E-08  6.3400E-08  6.3400E-08  6.3400E-08  6.3400E-08
0 31   6.3400E-08  6.3400E-08  6.3400E-08  6.3400E-08  6.3400E-08  6.3400E-08  6.3400E-08  6.3400E-08  6.3400E-08  6.3400E-08
       6.3400E-08   .0000       .0000       .0000       .0000       .0000       .0000       .0000       .0000       .0000    
        .0000       .0000       .0000       .0000      6.3400E-08  6.3400E-08  6.3400E-08  6.3400E-08  6.3400E-08  6.3400E-08
       6.3400E-08  6.3400E-08  6.3400E-08  6.3400E-08  6.3400E-08  6.3400E-08  6.3400E-08
0 32   6.3400E-08  6.3400E-08  6.3400E-08  6.3400E-08  6.3400E-08  6.3400E-08  6.3400E-08  6.3400E-08  6.3400E-08  6.3400E-08
       6.3400E-08   .0000       .0000       .0000       .0000       .0000       .0000       .0000       .0000       .0000    
        .0000       .0000       .0000       .0000      6.3400E-08  6.3400E-08  6.3400E-08  6.3400E-08  6.3400E-08  6.3400E-08
       6.3400E-08  6.3400E-08  6.3400E-08  6.3400E-08  6.3400E-08  6.3400E-08  6.3400E-08
0 33   6.3400E-08  6.3400E-08  6.3400E-08  6.3400E-08  6.3400E-08  6.3400E-08  6.3400E-08  6.3400E-08  6.3400E-08  6.3400E-08
       6.3400E-08   .0000       .0000       .0000       .0000       .0000       .0000       .0000       .0000       .0000    
        .0000       .0000       .0000      6.3400E-08  6.3400E-08  6.3400E-08  6.3400E-08  6.3400E-08  6.3400E-08  6.3400E-08
       6.3400E-08  6.3400E-08  6.3400E-08  6.3400E-08  6.3400E-08  6.3400E-08  6.3400E-08
0 34   6.3400E-08  6.3400E-08  6.3400E-08  6.3400E-08  6.3400E-08  6.3400E-08  6.3400E-08  6.3400E-08  6.3400E-08  6.3400E-08
       6.3400E-08   .0000       .0000       .0000       .0000       .0000       .0000       .0000       .0000      6.3400E-08
       6.3400E-08  6.3400E-08  6.3400E-08  6.3400E-08  6.3400E-08  6.3400E-08  6.3400E-08  6.3400E-08  6.3400E-08  6.3400E-08
       6.3400E-08  6.3400E-08  6.3400E-08  6.3400E-08  6.3400E-08  6.3400E-08  6.3400E-08
0 35   6.3400E-08  6.3400E-08  6.3400E-08  6.3400E-08  6.3400E-08  6.3400E-08  6.3400E-08  6.3400E-08  6.3400E-08  6.3400E-08
       6.3400E-08  6.3400E-08  6.3400E-08  6.3400E-08  6.3400E-08  6.3400E-08  6.3400E-08  6.3400E-08  6.3400E-08  6.3400E-08
       6.3400E-08  6.3400E-08  6.3400E-08  6.3400E-08  6.3400E-08  6.3400E-08  6.3400E-08  6.3400E-08  6.3400E-08  6.3400E-08
       6.3400E-08  6.3400E-08  6.3400E-08  6.3400E-08  6.3400E-08  6.3400E-08  6.3400E-08
0 36   6.3400E-08  6.3400E-08  6.3400E-08  6.3400E-08  6.3400E-08  6.3400E-08  6.3400E-08  6.3400E-08  6.3400E-08  6.3400E-08
       6.3400E-08  6.3400E-08  6.3400E-08  6.3400E-08  6.3400E-08  6.3400E-08  6.3400E-08  6.3400E-08  6.3400E-08  6.3400E-08
       6.3400E-08  6.3400E-08  6.3400E-08  6.3400E-08  6.3400E-08  6.3400E-08  6.3400E-08  6.3400E-08  6.3400E-08  6.3400E-08
       6.3400E-08  6.3400E-08  6.3400E-08  6.3400E-08  6.3400E-08  6.3400E-08  6.3400E-08
0 37   6.3400E-08  6.3400E-08  6.3400E-08  6.3400E-08  6.3400E-08  6.3400E-08  6.3400E-08  6.3400E-08  6.3400E-08  6.3400E-08
       6.3400E-08  6.3400E-08  6.3400E-08  6.3400E-08  6.3400E-08  6.3400E-08  6.3400E-08  6.3400E-08  6.3400E-08  6.3400E-08
       6.3400E-08  6.3400E-08  6.3400E-08  6.3400E-08  6.3400E-08  6.3400E-08  6.3400E-08  6.3400E-08  6.3400E-08  6.3400E-08
       6.3400E-08  6.3400E-08  6.3400E-08  6.3400E-08  6.3400E-08  6.3400E-08  6.3400E-08
0 38   6.3400E-08  6.3400E-08  6.3400E-08  6.3400E-08  6.3400E-08  6.3400E-08  6.3400E-08  6.3400E-08  6.3400E-08  6.3400E-08
       6.3400E-08  6.3400E-08  6.3400E-08  6.3400E-08  6.3400E-08  6.3400E-08  6.3400E-08  6.3400E-08  6.3400E-08  6.3400E-08
       6.3400E-08  6.3400E-08  6.3400E-08  6.3400E-08  6.3400E-08  6.3400E-08  6.3400E-08  6.3400E-08  6.3400E-08  6.3400E-08
       6.3400E-08  6.3400E-08  6.3400E-08  6.3400E-08  6.3400E-08  6.3400E-08  6.3400E-08
0 39   6.3400E-08  6.3400E-08  6.3400E-08  6.3400E-08  6.3400E-08  6.3400E-08  6.3400E-08  6.3400E-08  6.3400E-08  6.3400E-08
       6.3400E-08  6.3400E-08  6.3400E-08  6.3400E-08  6.3400E-08  6.3400E-08  6.3400E-08  6.3400E-08  6.3400E-08  6.3400E-08
       6.3400E-08  6.3400E-08  6.3400E-08  6.3400E-08  6.3400E-08  6.3400E-08  6.3400E-08  6.3400E-08  6.3400E-08  6.3400E-08
       6.3400E-08  6.3400E-08  6.3400E-08  6.3400E-08  6.3400E-08  6.3400E-08  6.3400E-08
0
     2 ITERATIONS FOR TIME STEP   1 IN STRESS PERIOD  1
0MAXIMUM HEAD CHANGE FOR EACH ITERATION:
0 HEAD CHANGE LAYER,ROW,COL HEAD CHANGE LAYER,ROW,COL HEAD CHANGE LAYER,ROW,COL HEAD CHANGE LAYER,ROW,COL HEAD CHANGE LAYER,ROW,COL
 ------------------------------------------------------------------------------------------------------------------------------------
   -.3099E-01 (  1, 32, 22)  -.8896E-02 (  1, 24, 18)
0
0HEAD/DRAWDOWN PRINTOUT FLAG = 0     TOTAL BUDGET PRINTOUT FLAG = 1     CELL-BY-CELL FLOW TERM FLAG = 0
0OUTPUT FLAGS FOR ALL LAYERS ARE THE SAME:
   HEAD    DRAWDOWN  HEAD  DRAWDOWN
 PRINTOUT  PRINTOUT  SAVE    SAVE
 ----------------------------------
     0         0       0       0
0


                              VOLUMETRIC BUDGET FOR ENTIRE MODEL AT END OF TIME STEP  1 IN STRESS PERIOD  1
                              -----------------------------------------------------------------------------
0                   CUMULATIVE VOLUMES      L**3                                     RATES FOR THIS TIME STEP      L**3/T
                    ------------------                                               ------------------------

                          IN:                                                                    IN:
                          ---                                                                    ---
                            STORAGE =    7704.1                                                    STORAGE =    .52696E-01
                      CONSTANT HEAD =    4319.6                                              CONSTANT HEAD =    .29546E-01
                           RECHARGE =    .10367E+06                                               RECHARGE =    .70909    
0                          TOTAL IN =    .11569E+06                                               TOTAL IN =    .79133    
0                        OUT:                                                                   OUT:
                         ----                                                                   ----
                            STORAGE =    109.22                                                    STORAGE =    .74708E-03
                      CONSTANT HEAD =    .11572E+06                                          CONSTANT HEAD =    .79151    
                           RECHARGE =    .00000                                                   RECHARGE =    .00000    
0                         TOTAL OUT =    .11583E+06                                              TOTAL OUT =    .79226    
0                          IN - OUT =   -135.53                                                   IN - OUT =   -.92709E-03
0               PERCENT DISCREPANCY =                -.12                              PERCENT DISCREPANCY =                -.12



0


          TIME SUMMARY AT END OF TIME STEP  1 IN STRESS PERIOD  1
                               SECONDS        MINUTES         HOURS          DAYS           YEARS
                           ---------------------------------------------------------------------------
      TIME STEP LENGTH         146198.        2436.64        40.6106        1.69211        .463274E-02
    STRESS PERIOD TIME         146198.        2436.64        40.6106        1.69211        .463274E-02
 TOTAL SIMULATION TIME         146198.        2436.64        40.6106        1.69211        .463274E-02
1
     3 ITERATIONS FOR TIME STEP   2 IN STRESS PERIOD  1
0MAXIMUM HEAD CHANGE FOR EACH ITERATION:
0 HEAD CHANGE LAYER,ROW,COL HEAD CHANGE LAYER,ROW,COL HEAD CHANGE LAYER,ROW,COL HEAD CHANGE LAYER,ROW,COL HEAD CHANGE LAYER,ROW,COL
 ------------------------------------------------------------------------------------------------------------------------------------
   -.4243E-01 (  1, 32, 22)  -.1392E-01 (  1, 24, 18)  -.3497E-02 (  1, 23, 19)
0
0HEAD/DRAWDOWN PRINTOUT FLAG = 0     TOTAL BUDGET PRINTOUT FLAG = 1     CELL-BY-CELL FLOW TERM FLAG = 0
0OUTPUT FLAGS FOR ALL LAYERS ARE THE SAME:
   HEAD    DRAWDOWN  HEAD  DRAWDOWN
 PRINTOUT  PRINTOUT  SAVE    SAVE
 ----------------------------------
     0         0       0       0
0


                              VOLUMETRIC BUDGET FOR ENTIRE MODEL AT END OF TIME STEP  2 IN STRESS PERIOD  1
                              -----------------------------------------------------------------------------
0                   CUMULATIVE VOLUMES      L**3                                     RATES FOR THIS TIME STEP      L**3/T
                    ------------------                                               ------------------------

                          IN:                                                                    IN:
                          ---                                                                    ---
                            STORAGE =    19257.                                                    STORAGE =    .52683E-01
                      CONSTANT HEAD =    10799.                                              CONSTANT HEAD =    .29546E-01
                           RECHARGE =    .25917E+06                                               RECHARGE =    .70909    
0                          TOTAL IN =    .28923E+06                                               TOTAL IN =    .79132    
0                        OUT:                                                                   OUT:
                         ----                                                                   ----
                            STORAGE =    260.67                                                    STORAGE =    .69059E-03
                      CONSTANT HEAD =    .28914E+06                                          CONSTANT HEAD =    .79081    
                           RECHARGE =    .00000                                                   RECHARGE =    .00000    
0                         TOTAL OUT =    .28940E+06                                              TOTAL OUT =    .79150    
0                          IN - OUT =   -174.91                                                   IN - OUT =   -.17965E-03
0               PERCENT DISCREPANCY =                -.06                              PERCENT DISCREPANCY =                -.02



0


          TIME SUMMARY AT END OF TIME STEP  2 IN STRESS PERIOD  1
                               SECONDS        MINUTES         HOURS          DAYS           YEARS
                           ---------------------------------------------------------------------------
      TIME STEP LENGTH         219297.        3654.95        60.9159        2.53816        .694911E-02
    STRESS PERIOD TIME         365495.        6091.59        101.526        4.23027        .115818E-01
 TOTAL SIMULATION TIME         365495.        6091.59        101.526        4.23027        .115818E-01
1
     3 ITERATIONS FOR TIME STEP   3 IN STRESS PERIOD  1
0MAXIMUM HEAD CHANGE FOR EACH ITERATION:
0 HEAD CHANGE LAYER,ROW,COL HEAD CHANGE LAYER,ROW,COL HEAD CHANGE LAYER,ROW,COL HEAD CHANGE LAYER,ROW,COL HEAD CHANGE LAYER,ROW,COL
 ------------------------------------------------------------------------------------------------------------------------------------
   -.5571E-01 (  1, 31, 21)  -.2022E-01 (  1, 27, 18)  -.7345E-02 (  1, 23, 19)
0
0HEAD/DRAWDOWN PRINTOUT FLAG = 0     TOTAL BUDGET PRINTOUT FLAG = 1     CELL-BY-CELL FLOW TERM FLAG = 0
0OUTPUT FLAGS FOR ALL LAYERS ARE THE SAME:
   HEAD    DRAWDOWN  HEAD  DRAWDOWN
 PRINTOUT  PRINTOUT  SAVE    SAVE
 ----------------------------------
     0         0       0       0
0


                              VOLUMETRIC BUDGET FOR ENTIRE MODEL AT END OF TIME STEP  3 IN STRESS PERIOD  1
                              -----------------------------------------------------------------------------
0                   CUMULATIVE VOLUMES      L**3                                     RATES FOR THIS TIME STEP      L**3/T
                    ------------------                                               ------------------------

                          IN:                                                                    IN:
                          ---                                                                    ---
                            STORAGE =    36070.                                                    STORAGE =    .51110E-01
                      CONSTANT HEAD =    20518.                                              CONSTANT HEAD =    .29545E-01
                           RECHARGE =    .49242E+06                                               RECHARGE =    .70909    
0                          TOTAL IN =    .54901E+06                                               TOTAL IN =    .78975    
0                        OUT:                                                                   OUT:
                         ----                                                                   ----
                            STORAGE =    457.71                                                    STORAGE =    .59903E-03
                      CONSTANT HEAD =    .54888E+06                                          CONSTANT HEAD =    .78962    
                           RECHARGE =    .00000                                                   RECHARGE =    .00000    
0                         TOTAL OUT =    .54934E+06                                              TOTAL OUT =    .79021    
0                          IN - OUT =   -329.00                                                   IN - OUT =   -.46843E-03
0               PERCENT DISCREPANCY =                -.06                              PERCENT DISCREPANCY =                -.06



0


          TIME SUMMARY AT END OF TIME STEP  3 IN STRESS PERIOD  1
                               SECONDS        MINUTES         HOURS          DAYS           YEARS
                           ---------------------------------------------------------------------------
      TIME STEP LENGTH         328946.        5482.43        91.3738        3.80724        .104237E-01
    STRESS PERIOD TIME         694441.        11574.0        192.900        8.03751        .220055E-01
 TOTAL SIMULATION TIME         694441.        11574.0        192.900        8.03751        .220055E-01
1
     4 ITERATIONS FOR TIME STEP   4 IN STRESS PERIOD  1
0MAXIMUM HEAD CHANGE FOR EACH ITERATION:
0 HEAD CHANGE LAYER,ROW,COL HEAD CHANGE LAYER,ROW,COL HEAD CHANGE LAYER,ROW,COL HEAD CHANGE LAYER,ROW,COL HEAD CHANGE LAYER,ROW,COL
 ------------------------------------------------------------------------------------------------------------------------------------
   -.6935E-01 (  1, 32, 20)  -.2983E-01 (  1, 27, 18)  -.1382E-01 (  1, 24, 18)  -.2855E-02 (  1, 24, 11)
0
0HEAD/DRAWDOWN PRINTOUT FLAG = 0     TOTAL BUDGET PRINTOUT FLAG = 1     CELL-BY-CELL FLOW TERM FLAG = 0
0OUTPUT FLAGS FOR ALL LAYERS ARE THE SAME:
   HEAD    DRAWDOWN  HEAD  DRAWDOWN
 PRINTOUT  PRINTOUT  SAVE    SAVE
 ----------------------------------
     0         0       0       0
0


                              VOLUMETRIC BUDGET FOR ENTIRE MODEL AT END OF TIME STEP  4 IN STRESS PERIOD  1
                              -----------------------------------------------------------------------------
0                   CUMULATIVE VOLUMES      L**3                                     RATES FOR THIS TIME STEP      L**3/T
                    ------------------                                               ------------------------

                          IN:                                                                    IN:
                          ---                                                                    ---
                            STORAGE =    60534.                                                    STORAGE =    .49582E-01
                      CONSTANT HEAD =    35095.                                              CONSTANT HEAD =    .29544E-01
                           RECHARGE =    .84230E+06                                               RECHARGE =    .70909    
0                          TOTAL IN =    .93793E+06                                               TOTAL IN =    .78822    
0                        OUT:                                                                   OUT:
                         ----                                                                   ----
                            STORAGE =    716.74                                                    STORAGE =    .52497E-03
                      CONSTANT HEAD =    .93757E+06                                          CONSTANT HEAD =    .78776    
                           RECHARGE =    .00000                                                   RECHARGE =    .00000    
0                         TOTAL OUT =    .93829E+06                                              TOTAL OUT =    .78828    
0                          IN - OUT =   -361.88                                                   IN - OUT =   -.66578E-04
0               PERCENT DISCREPANCY =                -.04                              PERCENT DISCREPANCY =                -.01



0


          TIME SUMMARY AT END OF TIME STEP  4 IN STRESS PERIOD  1
                               SECONDS        MINUTES         HOURS          DAYS           YEARS
                           ---------------------------------------------------------------------------
      TIME STEP LENGTH         493419.        8223.64        137.061        5.71086        .156355E-01
    STRESS PERIOD TIME         .118786E+07    19797.7        329.961        13.7484        .376410E-01
 TOTAL SIMULATION TIME         .118786E+07    19797.7        329.961        13.7484        .376410E-01
1
     4 ITERATIONS FOR TIME STEP   5 IN STRESS PERIOD  1
0MAXIMUM HEAD CHANGE FOR EACH ITERATION:
0 HEAD CHANGE LAYER,ROW,COL HEAD CHANGE LAYER,ROW,COL HEAD CHANGE LAYER,ROW,COL HEAD CHANGE LAYER,ROW,COL HEAD CHANGE LAYER,ROW,COL
 ------------------------------------------------------------------------------------------------------------------------------------
   -.8143E-01 (  1, 32, 20)  -.4490E-01 (  1, 30, 18)  -.2298E-01 (  1, 24, 18)  -.6375E-02 (  1, 23, 12)
0
0HEAD/DRAWDOWN PRINTOUT FLAG = 0     TOTAL BUDGET PRINTOUT FLAG = 1     CELL-BY-CELL FLOW TERM FLAG = 0
0OUTPUT FLAGS FOR ALL LAYERS ARE THE SAME:
   HEAD    DRAWDOWN  HEAD  DRAWDOWN
 PRINTOUT  PRINTOUT  SAVE    SAVE
 ----------------------------------
     0         0       0       0
0


                              VOLUMETRIC BUDGET FOR ENTIRE MODEL AT END OF TIME STEP  5 IN STRESS PERIOD  1
                              -----------------------------------------------------------------------------
0                   CUMULATIVE VOLUMES      L**3                                     RATES FOR THIS TIME STEP      L**3/T
                    ------------------                                               ------------------------

                          IN:                                                                    IN:
                          ---                                                                    ---
                            STORAGE =    95107.                                                    STORAGE =    .46711E-01
                      CONSTANT HEAD =    56960.                                              CONSTANT HEAD =    .29542E-01
                           RECHARGE =    .13671E+07                                               RECHARGE =    .70909    
0                          TOTAL IN =    .15192E+07                                               TOTAL IN =    .78534    
0                        OUT:                                                                   OUT:
                         ----                                                                   ----
                            STORAGE =    1040.4                                                    STORAGE =    .43733E-03
                      CONSTANT HEAD =    .15186E+07                                          CONSTANT HEAD =    .78510    
                           RECHARGE =    .00000                                                   RECHARGE =    .00000    
0                         TOTAL OUT =    .15197E+07                                              TOTAL OUT =    .78554    
0                          IN - OUT =   -504.25                                                   IN - OUT =   -.19234E-03
0               PERCENT DISCREPANCY =                -.03                              PERCENT DISCREPANCY =                -.02



0


          TIME SUMMARY AT END OF TIME STEP  5 IN STRESS PERIOD  1
                               SECONDS        MINUTES         HOURS          DAYS           YEARS
                           ---------------------------------------------------------------------------
      TIME STEP LENGTH         740128.        12335.5        205.591        8.56629        .234532E-01
    STRESS PERIOD TIME         .192799E+07    32133.1        535.552        22.3147        .610942E-01
 TOTAL SIMULATION TIME         .192799E+07    32133.1        535.552        22.3147        .610942E-01
1
     5 ITERATIONS FOR TIME STEP   6 IN STRESS PERIOD  1
0MAXIMUM HEAD CHANGE FOR EACH ITERATION:
0 HEAD CHANGE LAYER,ROW,COL HEAD CHANGE LAYER,ROW,COL HEAD CHANGE LAYER,ROW,COL HEAD CHANGE LAYER,ROW,COL HEAD CHANGE LAYER,ROW,COL
 ------------------------------------------------------------------------------------------------------------------------------------
   -.8831E-01 (  1, 32, 20)  -.6156E-01 (  1, 31, 18)  -.3389E-01 (  1, 25, 18)  -.1245E-01 (  1, 22, 19)  -.2663E-02 (  1, 17,  9)
0
0HEAD/DRAWDOWN PRINTOUT FLAG = 0     TOTAL BUDGET PRINTOUT FLAG = 1     CELL-BY-CELL FLOW TERM FLAG = 0
0OUTPUT FLAGS FOR ALL LAYERS ARE THE SAME:
   HEAD    DRAWDOWN  HEAD  DRAWDOWN
 PRINTOUT  PRINTOUT  SAVE    SAVE
 ----------------------------------
     0         0       0       0
0


                              VOLUMETRIC BUDGET FOR ENTIRE MODEL AT END OF TIME STEP  6 IN STRESS PERIOD  1
                              -----------------------------------------------------------------------------
0                   CUMULATIVE VOLUMES      L**3                                     RATES FOR THIS TIME STEP      L**3/T
                    ------------------                                               ------------------------

                          IN:                                                                    IN:
                          ---                                                                    ---
                            STORAGE =    .14300E+06                                                STORAGE =    .43141E-01
                      CONSTANT HEAD =    89757.                                              CONSTANT HEAD =    .29542E-01
                           RECHARGE =    .21543E+07                                               RECHARGE =    .70909    
0                          TOTAL IN =    .23871E+07                                               TOTAL IN =    .78177    
0                        OUT:                                                                   OUT:
                         ----                                                                   ----
                            STORAGE =    1400.2                                                    STORAGE =    .32408E-03
                      CONSTANT HEAD =    .23862E+07                                          CONSTANT HEAD =    .78147    
                           RECHARGE =    .00000                                                   RECHARGE =    .00000    
0                         TOTAL OUT =    .23876E+07                                              TOTAL OUT =    .78179    
0                          IN - OUT =   -527.50                                                   IN - OUT =   -.20862E-04
0               PERCENT DISCREPANCY =                -.02                              PERCENT DISCREPANCY =                -.00



0


          TIME SUMMARY AT END OF TIME STEP  6 IN STRESS PERIOD  1
                               SECONDS        MINUTES         HOURS          DAYS           YEARS
                           ---------------------------------------------------------------------------
      TIME STEP LENGTH         .111019E+07    18503.2        308.387        12.8494        .351799E-01
    STRESS PERIOD TIME         .303818E+07    50636.3        843.939        35.1641        .962741E-01
 TOTAL SIMULATION TIME         .303818E+07    50636.3        843.939        35.1641        .962741E-01
1
     5 ITERATIONS FOR TIME STEP   7 IN STRESS PERIOD  1
0MAXIMUM HEAD CHANGE FOR EACH ITERATION:
0 HEAD CHANGE LAYER,ROW,COL HEAD CHANGE LAYER,ROW,COL HEAD CHANGE LAYER,ROW,COL HEAD CHANGE LAYER,ROW,COL HEAD CHANGE LAYER,ROW,COL
 ------------------------------------------------------------------------------------------------------------------------------------
   -.8780E-01 (  1, 33, 19)  -.7432E-01 (  1, 31, 18)  -.4393E-01 (  1, 26, 18)  -.2203E-01 (  1, 22, 19)  -.5890E-02 (  1, 18,  9)
0
0HEAD/DRAWDOWN PRINTOUT FLAG = 0     TOTAL BUDGET PRINTOUT FLAG = 1     CELL-BY-CELL FLOW TERM FLAG = 0
0OUTPUT FLAGS FOR ALL LAYERS ARE THE SAME:
   HEAD    DRAWDOWN  HEAD  DRAWDOWN
 PRINTOUT  PRINTOUT  SAVE    SAVE
 ----------------------------------
     0         0       0       0
0


                              VOLUMETRIC BUDGET FOR ENTIRE MODEL AT END OF TIME STEP  7 IN STRESS PERIOD  1
                              -----------------------------------------------------------------------------
0                   CUMULATIVE VOLUMES      L**3                                     RATES FOR THIS TIME STEP      L**3/T
                    ------------------                                               ------------------------

                          IN:                                                                    IN:
                          ---                                                                    ---
                            STORAGE =    .20691E+06                                                STORAGE =    .38376E-01
                      CONSTANT HEAD =    .13897E+06                                          CONSTANT HEAD =    .29550E-01
                           RECHARGE =    .33352E+07                                               RECHARGE =    .70909    
0                          TOTAL IN =    .36811E+07                                               TOTAL IN =    .77702    
0                        OUT:                                                                   OUT:
                         ----                                                                   ----
                            STORAGE =    1762.9                                                    STORAGE =    .21779E-03
                      CONSTANT HEAD =    .36799E+07                                          CONSTANT HEAD =    .77685    
                           RECHARGE =    .00000                                                   RECHARGE =    .00000    
0                         TOTAL OUT =    .36817E+07                                              TOTAL OUT =    .77706    
0                          IN - OUT =   -608.00                                                   IN - OUT =   -.48280E-04
0               PERCENT DISCREPANCY =                -.02                              PERCENT DISCREPANCY =                -.01



0


          TIME SUMMARY AT END OF TIME STEP  7 IN STRESS PERIOD  1
                               SECONDS        MINUTES         HOURS          DAYS           YEARS
                           ---------------------------------------------------------------------------
      TIME STEP LENGTH         .166529E+07    27754.8        462.580        19.2742        .527698E-01
    STRESS PERIOD TIME         .470347E+07    78391.1        1306.52        54.4383        .149044    
 TOTAL SIMULATION TIME         .470347E+07    78391.1        1306.52        54.4383        .149044    
1
     6 ITERATIONS FOR TIME STEP   8 IN STRESS PERIOD  1
0MAXIMUM HEAD CHANGE FOR EACH ITERATION:
0 HEAD CHANGE LAYER,ROW,COL HEAD CHANGE LAYER,ROW,COL HEAD CHANGE LAYER,ROW,COL HEAD CHANGE LAYER,ROW,COL HEAD CHANGE LAYER,ROW,COL
 ------------------------------------------------------------------------------------------------------------------------------------
   -.7959E-01 (  1, 33, 19)  -.7773E-01 (  1, 32, 18)  -.5138E-01 (  1, 27, 18)  -.3321E-01 (  1, 22, 19)  -.1118E-01 (  1, 18, 10)
   -.2375E-02 (  1, 29, 30)
0
0HEAD/DRAWDOWN PRINTOUT FLAG = 1     TOTAL BUDGET PRINTOUT FLAG = 1     CELL-BY-CELL FLOW TERM FLAG = 0
0OUTPUT FLAGS FOR ALL LAYERS ARE THE SAME:
   HEAD    DRAWDOWN  HEAD  DRAWDOWN
 PRINTOUT  PRINTOUT  SAVE    SAVE
 ----------------------------------
     1         0       0       0
1                      HEAD IN LAYER  1 AT END OF TIME STEP  8 IN STRESS PERIOD  1
           -----------------------------------------------------------------------

           1       2       3       4       5       6       7       8       9      10      11      12      13      14      15
          16      17      18      19      20      21      22      23      24      25      26      27      28      29      30
          31      32      33      34      35      36      37
 ................................................................................................................................
0  1    99.00   99.00   99.00   99.00   99.00   99.00   99.00   99.00   99.00   99.00   99.00   99.00   99.00   99.00   99.00
        99.00   99.00   99.00   99.00   99.00   99.00   99.00   99.00   99.00   99.00   99.00   99.00   99.00   99.00   99.00
        99.00   99.00   99.00   99.00   99.00   99.00   99.00
0  2    99.00  131.71  131.14  130.67  130.30  130.00  129.76  129.56  129.43  129.33  129.24  129.15  129.00  128.77  128.48
       128.18  127.87  127.54  127.20  126.84  126.46  126.07  125.67  125.25  124.96  124.80  124.64  124.48  124.19  123.72
       123.13  122.48   99.00   99.00   99.00   99.00   99.00
0  3    99.00  131.40  130.76  130.28  129.89  129.59  129.35  129.14  129.01  128.92  128.82  128.73  128.58  128.34  128.05
       127.75  127.42  127.08  126.71  126.32  125.91  125.46  124.98  124.46  124.07  123.85  123.62  123.38  122.92  122.07
       120.71  118.00  118.00   99.00   99.00   99.00   99.00
0  4    99.00  130.79  129.96  129.43  129.03  128.73  128.49  128.30  128.16  128.07  127.98  127.89  127.75  127.51  127.23
       126.93  126.61  126.27  125.90  125.52  125.11  124.67  124.20  123.70  123.33  123.13  122.92  122.70  122.29  121.58
       120.56  118.96  116.52  110.00   99.00   99.00   99.00
0  5    99.00  130.00  128.52  127.96  127.60  127.33  127.12  126.94  126.82  126.74  126.66  126.57  126.44  126.23  125.96
       125.68  125.38  125.06  124.71  124.34  123.95  123.53  123.08  122.60  122.26  122.06  121.87  121.66  121.28  120.61
       119.66  118.14  115.47  111.01   98.00   99.00   99.00
0  6    99.00  126.00  125.96  125.82  125.67  125.51  125.37  125.25  125.16  125.10  125.03  124.97  124.86  124.68  124.45
       124.19  123.91  123.61  123.28  122.92  122.54  122.12  121.68  121.21  120.86  120.67  120.47  120.26  119.88  119.21
       118.24  116.71  114.07  109.37  102.24   93.00   99.00
0  7    99.00  123.00  123.68  123.94  123.98  123.95  123.88  123.80  123.74  123.69  123.64  123.59  123.50  123.35  123.14
       122.91  122.64  122.35  122.02  121.67  121.28  120.86  120.41  119.92  119.56  119.36  119.15  118.94  118.53  117.82
       116.77  115.06  111.96  107.02  101.08   88.00   99.00
0  8    99.00  120.00  121.85  122.50  122.72  122.77  122.76  122.72  122.68  122.65  122.61  122.57  122.49  122.36  122.16
       121.94  121.67  121.38  121.05  120.69  120.29  119.86  119.40  118.89  118.52  118.30  118.09  117.86  117.43  116.67
       115.52  113.55  110.25  105.46   99.88   86.00   99.00
0  9    99.00  118.00  120.43  121.42  121.79  121.91  121.94  121.92  121.90  121.87  121.84  121.80  121.74  121.61  121.42
       121.20  120.93  120.63  120.30  119.93  119.52  119.08  118.60  118.08  117.69  117.47  117.24  117.01  116.56  115.76
       114.52  112.45  109.16  104.48   99.14   85.50   99.00
0 10    99.00  116.00  119.40  120.60  121.07  121.25  121.31  121.31  121.29  121.28  121.25  121.22  121.16  121.04  120.85
       120.62  120.34  120.04  119.69  119.31  118.90  118.44  117.95  117.41  117.02  116.79  116.56  116.31  115.85  115.02
       113.74  111.64  108.34  103.76   98.52   85.00   99.00
0 11    99.00  115.50  118.71  119.98  120.51  120.73  120.81  120.83  120.82  120.81  120.79  120.76  120.71  120.58  120.39
       120.14  119.86  119.55  119.19  118.80  118.38  117.91  117.41  116.86  116.45  116.22  115.98  115.73  115.26  114.41
       113.10  110.97  107.67  103.14   97.97   84.50   99.00
0 12    99.00  115.00  118.26  119.58  120.16  120.39  120.48  120.51  120.51  120.50  120.49  120.46  120.42  120.29  120.08
       119.83  119.54  119.22  118.86  118.46  118.03  117.55  117.04  116.48  116.07  115.83  115.59  115.34  114.85  113.99
       112.67  110.52  107.21  102.71   97.56   84.00   99.00
0 13    99.00  114.50  117.95  119.31  119.92  120.16  120.27  120.30  120.31  120.30  120.29  120.27  120.22  120.09  119.88
       119.62  119.32  119.00  118.63  118.23  117.78  117.31  116.79  116.22  115.80  115.56  115.32  115.06  114.57  113.70
       112.36  110.20  106.89  102.42   97.27   84.00   99.00
0 14    99.00  114.00  117.65  119.05  119.67  119.94  120.05  120.09  120.10  120.10  120.09  120.07  120.02  119.88  119.67
       119.40  119.10  118.76  118.39  117.98  117.54  117.05  116.53  115.95  115.53  115.29  115.04  114.78  114.28  113.40
       112.05  109.87  106.56  102.10   96.96   84.00   99.00
0 15    99.00  113.50  117.35  118.79  119.43  119.71  119.83  119.88  119.89  119.89  119.88  119.86  119.81  119.67  119.45
       119.18  118.87  118.53  118.15  117.73  117.28  116.79  116.26  115.68  115.25  115.00  114.75  114.49  113.98  113.09
       111.72  109.53  106.23  101.78   96.63   84.00   99.00
0 16    99.00  113.00  117.05  118.53  119.19  119.48  119.61  119.66  119.68  119.68  119.67  119.64  119.59  119.44  119.22
       118.95  118.63  118.29  117.90  117.48  117.01  116.52  115.98  115.39  114.95  114.70  114.45  114.18  113.67  112.76
       111.38  109.18  105.88  101.44   96.27   84.00   99.00
0 17    99.00  112.50  116.75  118.26  118.95  119.25  119.38  119.44  119.46  119.46  119.45  119.42  119.35  119.20  118.98
       118.70  118.38  118.03  117.64  117.20  116.74  116.24  115.69  115.09  114.65  114.40  114.13  113.86  113.34  112.42
       111.02  108.80  105.51  101.09   95.89   84.00   99.00
0 18    99.00  112.00  116.45  118.00  118.72  119.02  119.16  119.22  119.23  119.23  119.21  119.18  119.10  118.95  118.72
       118.44  118.12  117.76  117.36  116.91  116.45  115.95  115.40  114.79  114.33  114.07  113.81  113.53  113.00  112.06
       110.64  108.41  105.14  100.73   95.48   84.00   99.00
0 19    99.00  111.50  116.16  117.75  118.48  118.79  118.93  118.99  119.00  118.99  118.97  118.93  118.84  118.69  118.46
       118.18  117.85  117.49  117.08  116.62  116.16  115.66  115.09  114.47  114.01  113.74  113.47  113.19  112.64  111.68
       110.24  108.00  104.74  100.35   95.05   84.00   99.00
0 20    99.00  111.30  115.87  117.49  118.24  118.56  118.70  118.76  118.76  118.75  118.72  118.67  118.59  118.43  118.19
       117.91  117.58  117.21  116.79  116.33  115.86  115.35  114.78  114.14  113.67  113.39  113.11  112.82  112.26  111.28
       109.82  107.55  104.33   99.95   94.57   84.00   99.00
0 21    99.00  111.00  115.58  117.24  118.00  118.32  118.47  118.53  118.52  118.50  118.47  118.42  118.34  118.16  117.92
       117.64  117.30  116.93  116.51  116.05  115.56  115.04  114.45  113.80  113.31  113.03  112.74  112.44  111.86  110.86
       109.36  107.08  103.91   99.54   94.06   84.00   99.00
0 22    99.00  110.80  115.30  116.98  117.76  118.09  118.25  118.29  118.28  118.26  118.22  118.17  118.08  117.90  117.65
       117.36  117.03  116.65  116.22  115.76  115.26  114.72  114.12  113.44  112.94  112.65  112.35  112.04  111.44  110.40
       108.86  106.57  103.46   99.11   93.49   84.00   99.00
0 23    99.00  110.60  115.02  116.73  117.52  117.86  118.01  118.05  118.04  118.02  117.97  117.91  117.82  117.64  117.38
       117.09  116.75  116.37  115.94  115.46  114.95  114.39  113.77  113.07  112.55  112.25  111.93  111.61  110.99  109.90
       108.32  106.02  102.99   98.66   92.88   84.00   99.00
0 24    99.00  110.40  114.74  116.48  117.28  117.63  117.78  117.82  117.80  117.77  117.72  117.66  117.56  117.37  117.11
       116.81  116.47  116.09  115.65  115.17  114.63  114.05  113.41  112.68  112.14  111.82  111.50  111.16  110.50  109.36
       107.72  105.40  102.50   98.18   92.19   84.00   99.00
0 25    99.00  109.00  114.46  116.23  117.04  117.39  117.54  117.58  117.56  117.52  117.46  117.40  117.30  117.10  116.84
       116.54  116.20  115.81  115.36  114.87  114.31  113.70  113.03  112.28  111.71  111.38  111.03  110.67  109.97  108.75
       107.03  104.71  101.97   97.69   91.41   84.00   99.00
0 26    99.00  108.00  114.05  115.86  116.69  117.04  117.19  117.22  117.18  117.14  117.08  117.01  116.90  116.70  116.43
       116.12  115.78  115.38  114.93  114.41  113.82  113.17  112.45  111.64  111.01  110.65  110.26  109.87  109.08  107.68
       105.74  103.42  101.12   96.89   89.97   84.00   99.00
0 27    99.00  107.00  113.52  115.38  116.21  116.57  116.72  116.73  116.68  116.63  116.57  116.49  116.37  116.16  115.89
       115.57  115.22  114.81  114.34  113.78  113.16  112.45  111.64  110.70  109.99  109.56  109.10  108.62  107.66  106.03
       103.69  101.44   99.86   95.73   85.00   84.00   99.00
0 28    99.00  106.00  112.91  114.82  115.66  116.00  116.13  116.14  116.08  116.02  115.96  115.88  115.75  115.53  115.26
       114.94  114.57  114.15  113.64  113.05  112.37  111.58  110.65  109.51  108.60  108.06  107.50  106.94  105.85  104.00
       101.42   99.26   97.99   86.00   99.00   99.00   99.00
0 29    99.00  105.00  112.17  114.11  114.95  115.28  115.39  115.36  115.29  115.24  115.17  115.08  114.95  114.74  114.45
       114.12  113.73  113.28  112.74  112.10  111.35  110.45  109.31  107.80  106.59  105.97  105.28  104.61  103.34  101.20
        93.00   96.00   95.26   87.00   99.00   99.00   99.00
0 30    99.00  103.00  111.40  113.29  114.12  114.44  114.52  114.47  114.39  114.33  114.26  114.17  114.04  113.82  113.53
       113.19  112.78  112.31  111.74  111.07  110.24  109.21  107.84  105.61  103.14  100.00   99.00   97.00   96.00   94.00
        93.00   99.00   90.00   99.00   99.00   99.00   99.00
0 31    99.00  102.00  110.56  112.36  113.18  113.48  113.53  113.47  113.40  113.34  113.27  113.20  113.07  112.85  112.56
       112.21  111.81  111.32  110.73  110.03  109.16  108.08  106.56  104.21  102.01  100.00   99.00   99.00   99.00   99.00
        99.00   99.00   99.00   99.00   99.00   99.00   99.00
0 32    99.00  101.00  109.62  111.29  112.05  112.34  112.40  112.37  112.32  112.28  112.22  112.15  112.03  111.82  111.53
       111.20  110.80  110.30  109.68  108.94  108.03  106.90  105.38  103.18  101.33  100.00   99.00   99.00   99.00   99.00
        99.00   99.00   99.00   99.00   99.00   99.00   99.00
0 33    99.00  100.00  108.59  110.14  110.76  111.02  111.09  111.09  111.05  111.01  110.96  110.89  110.77  110.58  110.33
       110.02  109.62  109.10  108.44  107.66  106.70  105.61  104.26  102.24  100.00  100.00   99.00   99.00   99.00   99.00
        99.00   99.00   99.00   99.00   99.00   99.00   99.00
0 34    99.00  100.00  107.32  108.96  109.48  109.66  109.70  109.68  109.64  109.60  109.55  109.48  109.38  109.21  109.01
       108.71  108.31  107.75  107.04  106.22  105.33  104.43  103.32  101.00   99.00   99.00   99.00   99.00   99.00   99.00
        99.00   99.00   99.00   99.00   99.00   99.00   99.00
0 35    99.00   99.00  100.00  107.68  108.08  108.13  108.09  108.05  108.01  107.98  107.95  107.90  107.83  107.71  107.55
       107.30  106.91  106.32  105.36  103.00  102.00  102.00  102.00   99.00   99.00   99.00   99.00   99.00   99.00   99.00
        99.00   99.00   99.00   99.00   99.00   99.00   99.00
0 36    99.00   99.00  100.00  106.15  106.26  105.64  104.00  104.00  104.00  104.00  104.00  104.00  104.00  104.00  105.00
       105.00  104.00  104.00  103.00   99.00   99.00   99.00   99.00   99.00   99.00   99.00   99.00   99.00   99.00   99.00
        99.00   99.00   99.00   99.00   99.00   99.00   99.00
0 37    99.00   99.00  100.00  104.39  104.26  103.00   99.00   99.00   99.00   99.00   99.00   99.00   99.00   99.00   99.00
        99.00   99.00   99.00   99.00   99.00   99.00   99.00   99.00   99.00   99.00   99.00   99.00   99.00   99.00   99.00
        99.00   99.00   99.00   99.00   99.00   99.00   99.00
0 38    99.00   99.00  100.00  101.00  102.00   99.00   99.00   99.00   99.00   99.00   99.00   99.00   99.00   99.00   99.00
        99.00   99.00   99.00   99.00   99.00   99.00   99.00   99.00   99.00   99.00   99.00   99.00   99.00   99.00   99.00
        99.00   99.00   99.00   99.00   99.00   99.00   99.00
0 39    99.00   99.00   99.00   99.00   99.00   99.00   99.00   99.00   99.00   99.00   99.00   99.00   99.00   99.00   99.00
        99.00   99.00   99.00   99.00   99.00   99.00   99.00   99.00   99.00   99.00   99.00   99.00   99.00   99.00   99.00
        99.00   99.00   99.00   99.00   99.00   99.00   99.00
0


                              VOLUMETRIC BUDGET FOR ENTIRE MODEL AT END OF TIME STEP  8 IN STRESS PERIOD  1
                              -----------------------------------------------------------------------------
0                   CUMULATIVE VOLUMES      L**3                                     RATES FOR THIS TIME STEP      L**3/T
                    ------------------                                               ------------------------

                          IN:                                                                    IN:
                          ---                                                                    ---
                            STORAGE =    .28857E+06                                                STORAGE =    .32693E-01
                      CONSTANT HEAD =    .21287E+06                                          CONSTANT HEAD =    .29588E-01
                           RECHARGE =    .51064E+07                                               RECHARGE =    .70909    
0                          TOTAL IN =    .56079E+07                                               TOTAL IN =    .77137    
0                        OUT:                                                                   OUT:
                         ----                                                                   ----
                            STORAGE =    2023.0                                                    STORAGE =    .10412E-03
                      CONSTANT HEAD =    .56065E+07                                          CONSTANT HEAD =    .77128    
                           RECHARGE =    .00000                                                   RECHARGE =    .00000    
0                         TOTAL OUT =    .56085E+07                                              TOTAL OUT =    .77139    
0                          IN - OUT =   -650.00                                                   IN - OUT =   -.16809E-04
0               PERCENT DISCREPANCY =                -.01                              PERCENT DISCREPANCY =                -.00



0


          TIME SUMMARY AT END OF TIME STEP  8 IN STRESS PERIOD  1
                               SECONDS        MINUTES         HOURS          DAYS           YEARS
                           ---------------------------------------------------------------------------
      TIME STEP LENGTH         .249793E+07    41632.2        693.870        28.9112        .791547E-01
    STRESS PERIOD TIME         .720140E+07    120023.        2000.39        83.3495        .228199    
 TOTAL SIMULATION TIME         .720140E+07    120023.        2000.39        83.3495        .228199    
1
     6 ITERATIONS FOR TIME STEP   9 IN STRESS PERIOD  1
0MAXIMUM HEAD CHANGE FOR EACH ITERATION:
0 HEAD CHANGE LAYER,ROW,COL HEAD CHANGE LAYER,ROW,COL HEAD CHANGE LAYER,ROW,COL HEAD CHANGE LAYER,ROW,COL HEAD CHANGE LAYER,ROW,COL
 ------------------------------------------------------------------------------------------------------------------------------------
   -.6390E-01 (  1, 33, 19)  -.7167E-01 (  1, 32, 18)  -.5384E-01 (  1, 29, 17)  -.4272E-01 (  1, 22, 19)  -.1805E-01 (  1, 19, 10)
   -.4053E-02 (  1, 29, 30)
0
0HEAD/DRAWDOWN PRINTOUT FLAG = 0     TOTAL BUDGET PRINTOUT FLAG = 1     CELL-BY-CELL FLOW TERM FLAG = 0
0OUTPUT FLAGS FOR ALL LAYERS ARE THE SAME:
   HEAD    DRAWDOWN  HEAD  DRAWDOWN
 PRINTOUT  PRINTOUT  SAVE    SAVE
 ----------------------------------
     0         0       0       0
0


                              VOLUMETRIC BUDGET FOR ENTIRE MODEL AT END OF TIME STEP  9 IN STRESS PERIOD  1
                              -----------------------------------------------------------------------------
0                   CUMULATIVE VOLUMES      L**3                                     RATES FOR THIS TIME STEP      L**3/T
                    ------------------                                               ------------------------

                          IN:                                                                    IN:
                          ---                                                                    ---
                            STORAGE =    .38710E+06                                                STORAGE =    .26296E-01
                      CONSTANT HEAD =    .32411E+06                                          CONSTANT HEAD =    .29688E-01
                           RECHARGE =    .77633E+07                                               RECHARGE =    .70909    
0                          TOTAL IN =    .84745E+07                                               TOTAL IN =    .76507    
0                        OUT:                                                                   OUT:
                         ----                                                                   ----
                            STORAGE =    2064.3                                                    STORAGE =    .11015E-04
                      CONSTANT HEAD =    .84734E+07                                          CONSTANT HEAD =    .76512    
                           RECHARGE =    .00000                                                   RECHARGE =    .00000    
0                         TOTAL OUT =    .84754E+07                                              TOTAL OUT =    .76513    
0                          IN - OUT =   -877.00                                                   IN - OUT =   -.60618E-04
0               PERCENT DISCREPANCY =                -.01                              PERCENT DISCREPANCY =                -.01



0


          TIME SUMMARY AT END OF TIME STEP  9 IN STRESS PERIOD  1
                               SECONDS        MINUTES         HOURS          DAYS           YEARS
                           ---------------------------------------------------------------------------
      TIME STEP LENGTH         .374690E+07    62448.3        1040.80        43.3669        .118732    
    STRESS PERIOD TIME         .109483E+08    182472.        3041.19        126.716        .346931    
 TOTAL SIMULATION TIME         .109483E+08    182472.        3041.19        126.716        .346931    
1
     6 ITERATIONS FOR TIME STEP  10 IN STRESS PERIOD  1
0MAXIMUM HEAD CHANGE FOR EACH ITERATION:
0 HEAD CHANGE LAYER,ROW,COL HEAD CHANGE LAYER,ROW,COL HEAD CHANGE LAYER,ROW,COL HEAD CHANGE LAYER,ROW,COL HEAD CHANGE LAYER,ROW,COL
 ------------------------------------------------------------------------------------------------------------------------------------
   -.4500E-01 (  1, 33, 19)  -.5664E-01 (  1, 32, 18)  -.4975E-01 (  1, 30, 17)  -.4683E-01 (  1, 23, 19)  -.2454E-01 (  1, 19, 10)
   -.5519E-02 (  1, 29, 30)
0
0HEAD/DRAWDOWN PRINTOUT FLAG = 0     TOTAL BUDGET PRINTOUT FLAG = 1     CELL-BY-CELL FLOW TERM FLAG = 0
0OUTPUT FLAGS FOR ALL LAYERS ARE THE SAME:
   HEAD    DRAWDOWN  HEAD  DRAWDOWN
 PRINTOUT  PRINTOUT  SAVE    SAVE
 ----------------------------------
     0         0       0       0
0


                              VOLUMETRIC BUDGET FOR ENTIRE MODEL AT END OF TIME STEP 10 IN STRESS PERIOD  1
                              -----------------------------------------------------------------------------
0                   CUMULATIVE VOLUMES      L**3                                     RATES FOR THIS TIME STEP      L**3/T
                    ------------------                                               ------------------------

                          IN:                                                                    IN:
                          ---                                                                    ---
                            STORAGE =    .49799E+06                                                STORAGE =    .19729E-01
                      CONSTANT HEAD =    .49206E+06                                          CONSTANT HEAD =    .29882E-01
                           RECHARGE =    .11749E+08                                               RECHARGE =    .70909    
0                          TOTAL IN =    .12739E+08                                               TOTAL IN =    .75870    
0                        OUT:                                                                   OUT:
                         ----                                                                   ----
                            STORAGE =    2064.3                                                    STORAGE =    .00000    
                      CONSTANT HEAD =    .12738E+08                                          CONSTANT HEAD =    .75882    
                           RECHARGE =    .00000                                                   RECHARGE =    .00000    
0                         TOTAL OUT =    .12740E+08                                              TOTAL OUT =    .75882    
0                          IN - OUT =   -1565.0                                                   IN - OUT =   -.12249E-03
0               PERCENT DISCREPANCY =                -.01                              PERCENT DISCREPANCY =                -.02



0


          TIME SUMMARY AT END OF TIME STEP 10 IN STRESS PERIOD  1
                               SECONDS        MINUTES         HOURS          DAYS           YEARS
                           ---------------------------------------------------------------------------
      TIME STEP LENGTH         .562035E+07    93672.4        1561.21        65.0503        .178098    
    STRESS PERIOD TIME         .165686E+08    276144.        4602.40        191.767        .525029    
 TOTAL SIMULATION TIME         .165686E+08    276144.        4602.40        191.767        .525029    
1
     6 ITERATIONS FOR TIME STEP  11 IN STRESS PERIOD  1
0MAXIMUM HEAD CHANGE FOR EACH ITERATION:
0 HEAD CHANGE LAYER,ROW,COL HEAD CHANGE LAYER,ROW,COL HEAD CHANGE LAYER,ROW,COL HEAD CHANGE LAYER,ROW,COL HEAD CHANGE LAYER,ROW,COL
 ------------------------------------------------------------------------------------------------------------------------------------
   -.2763E-01 (  1, 33, 18)  -.3830E-01 (  1, 32, 18)  -.3969E-01 (  1, 31, 11)  -.4356E-01 (  1, 23, 19)  -.2759E-01 (  1, 19, 10)
   -.6125E-02 (  1, 29, 30)
0
0HEAD/DRAWDOWN PRINTOUT FLAG = 1     TOTAL BUDGET PRINTOUT FLAG = 1     CELL-BY-CELL FLOW TERM FLAG = 0
0OUTPUT FLAGS FOR ALL LAYERS ARE THE SAME:
   HEAD    DRAWDOWN  HEAD  DRAWDOWN
 PRINTOUT  PRINTOUT  SAVE    SAVE
 ----------------------------------
     1         0       0       0
1                      HEAD IN LAYER  1 AT END OF TIME STEP 11 IN STRESS PERIOD  1
           -----------------------------------------------------------------------

           1       2       3       4       5       6       7       8       9      10      11      12      13      14      15
          16      17      18      19      20      21      22      23      24      25      26      27      28      29      30
          31      32      33      34      35      36      37
 ................................................................................................................................
0  1    99.00   99.00   99.00   99.00   99.00   99.00   99.00   99.00   99.00   99.00   99.00   99.00   99.00   99.00   99.00
        99.00   99.00   99.00   99.00   99.00   99.00   99.00   99.00   99.00   99.00   99.00   99.00   99.00   99.00   99.00
        99.00   99.00   99.00   99.00   99.00   99.00   99.00
0  2    99.00  131.71  131.13  130.67  130.29  129.99  129.75  129.55  129.42  129.33  129.23  129.14  128.99  128.76  128.47
       128.18  127.86  127.53  127.19  126.83  126.45  126.06  125.66  125.25  124.96  124.80  124.64  124.48  124.18  123.71
       123.13  122.48   99.00   99.00   99.00   99.00   99.00
0  3    99.00  131.39  130.75  130.27  129.88  129.58  129.33  129.13  129.00  128.91  128.81  128.72  128.57  128.33  128.04
       127.73  127.41  127.07  126.70  126.31  125.89  125.45  124.97  124.45  124.06  123.84  123.61  123.37  122.91  122.06
       120.70  118.00  118.00   99.00   99.00   99.00   99.00
0  4    99.00  130.79  129.94  129.41  129.01  128.71  128.47  128.27  128.14  128.05  127.96  127.87  127.72  127.49  127.20
       126.90  126.58  126.24  125.88  125.49  125.08  124.64  124.18  123.68  123.31  123.11  122.90  122.68  122.27  121.56
       120.54  118.94  116.51  110.00   99.00   99.00   99.00
0  5    99.00  130.00  128.51  127.93  127.56  127.29  127.08  126.90  126.78  126.70  126.61  126.53  126.40  126.18  125.92
       125.63  125.33  125.01  124.66  124.29  123.90  123.48  123.03  122.56  122.21  122.02  121.82  121.62  121.24  120.58
       119.62  118.11  115.45  111.00   98.00   99.00   99.00
0  6    99.00  126.00  125.93  125.78  125.61  125.45  125.31  125.18  125.09  125.02  124.96  124.89  124.78  124.59  124.36
       124.11  123.83  123.52  123.19  122.84  122.45  122.04  121.60  121.13  120.79  120.59  120.39  120.19  119.81  119.14
       118.18  116.66  114.03  109.35  102.23   93.00   99.00
0  7    99.00  123.00  123.64  123.87  123.90  123.86  123.78  123.70  123.63  123.59  123.54  123.48  123.39  123.23  123.02
       122.78  122.52  122.22  121.90  121.54  121.16  120.74  120.29  119.81  119.45  119.25  119.04  118.83  118.43  117.72
       116.69  114.99  111.91  106.99  101.06   88.00   99.00
0  8    99.00  120.00  121.80  122.42  122.62  122.66  122.64  122.59  122.55  122.51  122.47  122.43  122.35  122.21  122.01
       121.78  121.51  121.22  120.89  120.53  120.14  119.71  119.25  118.75  118.38  118.17  117.96  117.73  117.31  116.55
       115.42  113.47  110.19  105.43   99.86   86.00   99.00
0  9    99.00  118.00  120.37  121.33  121.67  121.78  121.80  121.78  121.74  121.72  121.68  121.64  121.57  121.44  121.24
       121.01  120.75  120.44  120.11  119.74  119.34  118.90  118.43  117.91  117.53  117.32  117.09  116.86  116.42  115.63
       114.41  112.36  109.09  104.44   99.12   85.50   99.00
0 10    99.00  116.00  119.34  120.50  120.94  121.10  121.15  121.15  121.12  121.10  121.07  121.04  120.97  120.84  120.65
       120.41  120.13  119.82  119.48  119.10  118.69  118.24  117.75  117.23  116.84  116.62  116.39  116.15  115.69  114.88
       113.62  111.55  108.27  103.72   98.50   85.00   99.00
0 11    99.00  115.50  118.64  119.87  120.38  120.57  120.64  120.65  120.63  120.62  120.59  120.56  120.50  120.37  120.17
       119.92  119.63  119.31  118.96  118.57  118.15  117.69  117.20  116.66  116.26  116.03  115.80  115.56  115.09  114.26
       112.97  110.87  107.60  103.10   97.94   84.50   99.00
0 12    99.00  115.00  118.18  119.47  120.01  120.22  120.31  120.33  120.32  120.31  120.29  120.26  120.20  120.06  119.85
       119.59  119.30  118.97  118.61  118.22  117.79  117.32  116.82  116.27  115.87  115.64  115.40  115.15  114.68  113.83
       112.53  110.41  107.14  102.67   97.54   84.00   99.00
0 13    99.00  114.50  117.88  119.20  119.77  119.99  120.08  120.11  120.11  120.10  120.08  120.05  120.00  119.86  119.64
       119.37  119.07  118.74  118.37  117.97  117.54  117.07  116.56  116.00  115.59  115.36  115.12  114.87  114.39  113.54
       112.22  110.10  106.82  102.37   97.25   84.00   99.00
0 14    99.00  114.00  117.58  118.93  119.52  119.76  119.86  119.89  119.89  119.88  119.87  119.85  119.79  119.65  119.42
       119.15  118.84  118.50  118.13  117.72  117.28  116.80  116.29  115.73  115.31  115.08  114.83  114.58  114.10  113.23
       111.91  109.77  106.49  102.06   96.94   84.00   99.00
0 15    99.00  113.50  117.27  118.66  119.28  119.53  119.63  119.67  119.68  119.67  119.66  119.63  119.57  119.43  119.20
       118.92  118.60  118.26  117.88  117.46  117.01  116.53  116.01  115.44  115.02  114.78  114.54  114.28  113.79  112.92
       111.58  109.42  106.16  101.74   96.60   84.00   99.00
0 16    99.00  113.00  116.97  118.40  119.03  119.29  119.41  119.45  119.46  119.46  119.44  119.41  119.34  119.19  118.96
       118.67  118.35  118.00  117.62  117.20  116.74  116.25  115.73  115.15  114.72  114.48  114.23  113.97  113.47  112.59
       111.23  109.07  105.81  101.40   96.25   84.00   99.00
0 17    99.00  112.50  116.67  118.13  118.79  119.06  119.18  119.23  119.23  119.23  119.21  119.17  119.10  118.94  118.70
       118.42  118.09  117.74  117.34  116.91  116.45  115.97  115.43  114.85  114.41  114.17  113.91  113.65  113.14  112.24
       110.87  108.69  105.44  101.05   95.87   84.00   99.00
0 18    99.00  112.00  116.37  117.87  118.55  118.82  118.94  118.99  119.00  118.99  118.97  118.92  118.84  118.67  118.43
       118.15  117.82  117.46  117.05  116.61  116.16  115.67  115.13  114.53  114.09  113.84  113.58  113.31  112.79  111.88
       110.49  108.30  105.06  100.69   95.46   84.00   99.00
0 19    99.00  111.50  116.07  117.61  118.30  118.59  118.71  118.76  118.76  118.74  118.71  118.66  118.57  118.41  118.16
       117.87  117.54  117.17  116.76  116.31  115.86  115.37  114.82  114.21  113.76  113.50  113.23  112.96  112.43  111.50
       110.09  107.88  104.67  100.31   95.02   84.00   99.00
0 20    99.00  111.30  115.78  117.35  118.06  118.35  118.48  118.52  118.51  118.49  118.46  118.40  118.31  118.13  117.88
       117.59  117.25  116.88  116.46  116.01  115.55  115.05  114.49  113.87  113.41  113.15  112.87  112.59  112.05  111.09
       109.66  107.44  104.26   99.91   94.55   84.00   99.00
0 21    99.00  111.00  115.49  117.09  117.81  118.11  118.24  118.28  118.26  118.24  118.20  118.14  118.05  117.86  117.60
       117.31  116.97  116.59  116.17  115.71  115.24  114.73  114.16  113.52  113.05  112.78  112.50  112.20  111.64  110.66
       109.20  106.97  103.84   99.50   94.04   84.00   99.00
0 22    99.00  110.80  115.21  116.84  117.57  117.88  118.01  118.04  118.02  117.99  117.94  117.88  117.78  117.58  117.32
       117.02  116.68  116.30  115.87  115.41  114.92  114.40  113.82  113.16  112.67  112.39  112.10  111.80  111.22  110.20
       108.70  106.46  103.39   99.07   93.48   84.00   99.00
0 23    99.00  110.60  114.92  116.58  117.33  117.64  117.77  117.79  117.77  117.74  117.68  117.62  117.51  117.31  117.04
       116.73  116.39  116.01  115.58  115.11  114.60  114.06  113.46  112.78  112.28  111.98  111.68  111.37  110.76  109.70
       108.16  105.91  102.92   98.62   92.86   84.00   99.00
0 24    99.00  110.40  114.64  116.33  117.09  117.40  117.53  117.55  117.52  117.48  117.42  117.35  117.24  117.03  116.76
       116.45  116.10  115.72  115.28  114.80  114.28  113.71  113.09  112.39  111.86  111.55  111.24  110.91  110.27  109.15
       107.56  105.29  102.43   98.15   92.17   84.00   99.00
0 25    99.00  109.00  114.36  116.08  116.85  117.16  117.29  117.31  117.28  117.22  117.16  117.09  116.97  116.75  116.47
       116.16  115.81  115.42  114.98  114.50  113.95  113.36  112.71  111.98  111.43  111.10  110.77  110.42  109.74  108.55
       106.87  104.61  101.91   97.65   91.40   84.00   99.00
0 26    99.00  108.00  113.94  115.70  116.48  116.81  116.93  116.94  116.89  116.83  116.76  116.68  116.55  116.33  116.05
       115.72  115.38  114.98  114.53  114.02  113.44  112.82  112.11  111.33  110.72  110.37  109.99  109.61  108.84  107.46
       105.57  103.31  101.06   96.86   89.96   84.00   99.00
0 27    99.00  107.00  113.41  115.21  116.00  116.32  116.44  116.44  116.36  116.30  116.23  116.14  116.00  115.78  115.49
       115.16  114.80  114.39  113.92  113.37  112.76  112.08  111.29  110.39  109.69  109.27  108.82  108.35  107.41  105.81
       103.51  101.33   99.80   95.70   85.00   84.00   99.00
0 28    99.00  106.00  112.80  114.65  115.44  115.75  115.85  115.82  115.74  115.68  115.60  115.51  115.36  115.13  114.83
       114.50  114.13  113.70  113.20  112.61  111.95  111.19  110.29  109.19  108.29  107.76  107.21  106.66  105.59  103.77
       101.24   99.18   97.93   86.00   99.00   99.00   99.00
0 29    99.00  105.00  112.05  113.93  114.73  115.02  115.09  115.03  114.94  114.88  114.79  114.69  114.55  114.31  114.00
       113.66  113.26  112.80  112.27  111.64  110.92  110.04  108.94  107.48  106.29  105.68  105.00  104.33  103.08  100.97
        93.00   96.00   95.22   87.00   99.00   99.00   99.00
0 30    99.00  103.00  111.27  113.11  113.89  114.17  114.21  114.12  114.03  113.95  113.86  113.76  113.62  113.38  113.05
       112.70  112.29  111.81  111.25  110.59  109.79  108.80  107.47  105.32  102.93  100.00   99.00   97.00   96.00   94.00
        93.00   99.00   90.00   99.00   99.00   99.00   99.00
0 31    99.00  102.00  110.43  112.18  112.94  113.20  113.21  113.12  113.03  112.96  112.87  112.78  112.64  112.39  112.08
       111.72  111.31  110.82  110.24  109.54  108.70  107.66  106.21  103.94  101.84  100.00   99.00   99.00   99.00   99.00
        99.00   99.00   99.00   99.00   99.00   99.00   99.00
0 32    99.00  101.00  109.48  111.11  111.82  112.06  112.08  112.02  111.95  111.90  111.83  111.74  111.60  111.36  111.06
       110.71  110.30  109.80  109.19  108.47  107.58  106.49  105.04  102.94  101.19  100.00   99.00   99.00   99.00   99.00
        99.00   99.00   99.00   99.00   99.00   99.00   99.00
0 33    99.00  100.00  108.46  109.96  110.54  110.75  110.79  110.76  110.70  110.65  110.58  110.50  110.36  110.14  109.88
       109.56  109.14  108.62  107.98  107.21  106.29  105.25  103.96  102.07  100.00  100.00   99.00   99.00   99.00   99.00
        99.00   99.00   99.00   99.00   99.00   99.00   99.00
0 34    99.00  100.00  107.20  108.79  109.28  109.42  109.43  109.38  109.32  109.27  109.21  109.13  109.01  108.82  108.60
       108.30  107.89  107.34  106.64  105.85  104.99  104.14  103.11  101.00   99.00   99.00   99.00   99.00   99.00   99.00
        99.00   99.00   99.00   99.00   99.00   99.00   99.00
0 35    99.00   99.00  100.00  107.53  107.92  107.93  107.87  107.80  107.75  107.71  107.67  107.62  107.54  107.40  107.25
       107.00  106.59  106.02  105.10  103.00  102.00  102.00  102.00   99.00   99.00   99.00   99.00   99.00   99.00   99.00
        99.00   99.00   99.00   99.00   99.00   99.00   99.00
0 36    99.00   99.00  100.00  106.03  106.13  105.54  104.00  104.00  104.00  104.00  104.00  104.00  104.00  104.00  105.00
       105.00  104.00  104.00  103.00   99.00   99.00   99.00   99.00   99.00   99.00   99.00   99.00   99.00   99.00   99.00
        99.00   99.00   99.00   99.00   99.00   99.00   99.00
0 37    99.00   99.00  100.00  104.31  104.19  103.00   99.00   99.00   99.00   99.00   99.00   99.00   99.00   99.00   99.00
        99.00   99.00   99.00   99.00   99.00   99.00   99.00   99.00   99.00   99.00   99.00   99.00   99.00   99.00   99.00
        99.00   99.00   99.00   99.00   99.00   99.00   99.00
0 38    99.00   99.00  100.00  101.00  102.00   99.00   99.00   99.00   99.00   99.00   99.00   99.00   99.00   99.00   99.00
        99.00   99.00   99.00   99.00   99.00   99.00   99.00   99.00   99.00   99.00   99.00   99.00   99.00   99.00   99.00
        99.00   99.00   99.00   99.00   99.00   99.00   99.00
0 39    99.00   99.00   99.00   99.00   99.00   99.00   99.00   99.00   99.00   99.00   99.00   99.00   99.00   99.00   99.00
        99.00   99.00   99.00   99.00   99.00   99.00   99.00   99.00   99.00   99.00   99.00   99.00   99.00   99.00   99.00
        99.00   99.00   99.00   99.00   99.00   99.00   99.00
0


                              VOLUMETRIC BUDGET FOR ENTIRE MODEL AT END OF TIME STEP 11 IN STRESS PERIOD  1
                              -----------------------------------------------------------------------------
0                   CUMULATIVE VOLUMES      L**3                                     RATES FOR THIS TIME STEP      L**3/T
                    ------------------                                               ------------------------

                          IN:                                                                    IN:
                          ---                                                                    ---
                            STORAGE =    .61191E+06                                                STORAGE =    .13514E-01
                      CONSTANT HEAD =    .74637E+06                                          CONSTANT HEAD =    .30166E-01
                           RECHARGE =    .17727E+08                                               RECHARGE =    .70909    
0                          TOTAL IN =    .19085E+08                                               TOTAL IN =    .75277    
0                        OUT:                                                                   OUT:
                         ----                                                                   ----
                            STORAGE =    2064.3                                                    STORAGE =    .00000    
                      CONSTANT HEAD =    .19086E+08                                          CONSTANT HEAD =    .75295    
                           RECHARGE =    .00000                                                   RECHARGE =    .00000    
0                         TOTAL OUT =    .19088E+08                                              TOTAL OUT =    .75295    
0                          IN - OUT =   -3072.0                                                   IN - OUT =   -.17905E-03
0               PERCENT DISCREPANCY =                -.02                              PERCENT DISCREPANCY =                -.02



0


          TIME SUMMARY AT END OF TIME STEP 11 IN STRESS PERIOD  1
                               SECONDS        MINUTES         HOURS          DAYS           YEARS
                           ---------------------------------------------------------------------------
      TIME STEP LENGTH         .843052E+07    140509.        2341.81        97.5755        .267147    
    STRESS PERIOD TIME         .249992E+08    416653.        6944.21        289.342        .792176    
 TOTAL SIMULATION TIME         .249992E+08    416653.        6944.21        289.342        .792176    
1
     6 ITERATIONS FOR TIME STEP  12 IN STRESS PERIOD  1
0MAXIMUM HEAD CHANGE FOR EACH ITERATION:
0 HEAD CHANGE LAYER,ROW,COL HEAD CHANGE LAYER,ROW,COL HEAD CHANGE LAYER,ROW,COL HEAD CHANGE LAYER,ROW,COL HEAD CHANGE LAYER,ROW,COL
 ------------------------------------------------------------------------------------------------------------------------------------
   -.1655E-01 (  1, 33,  3)  -.2212E-01 (  1, 32, 17)  -.2765E-01 (  1, 31, 10)  -.3425E-01 (  1, 23, 19)  -.2533E-01 (  1, 20, 10)
   -.5629E-02 (  1, 29, 30)
0
0HEAD/DRAWDOWN PRINTOUT FLAG = 0     TOTAL BUDGET PRINTOUT FLAG = 1     CELL-BY-CELL FLOW TERM FLAG = 0
0OUTPUT FLAGS FOR ALL LAYERS ARE THE SAME:
   HEAD    DRAWDOWN  HEAD  DRAWDOWN
 PRINTOUT  PRINTOUT  SAVE    SAVE
 ----------------------------------
     0         0       0       0
0


                              VOLUMETRIC BUDGET FOR ENTIRE MODEL AT END OF TIME STEP 12 IN STRESS PERIOD  1
                              -----------------------------------------------------------------------------
0                   CUMULATIVE VOLUMES      L**3                                     RATES FOR THIS TIME STEP      L**3/T
                    ------------------                                               ------------------------

                          IN:                                                                    IN:
                          ---                                                                    ---
                            STORAGE =    .71635E+06                                                STORAGE =    .82583E-02
                      CONSTANT HEAD =    .11320E+07                                          CONSTANT HEAD =    .30494E-01
                           RECHARGE =    .26694E+08                                               RECHARGE =    .70909    
0                          TOTAL IN =    .28542E+08                                               TOTAL IN =    .74784    
0                        OUT:                                                                   OUT:
                         ----                                                                   ----
                            STORAGE =    2064.3                                                    STORAGE =    .00000    
                      CONSTANT HEAD =    .28545E+08                                          CONSTANT HEAD =    .74803    
                           RECHARGE =    .00000                                                   RECHARGE =    .00000    
0                         TOTAL OUT =    .28547E+08                                              TOTAL OUT =    .74803    
0                          IN - OUT =   -5500.0                                                   IN - OUT =   -.19193E-03
0               PERCENT DISCREPANCY =                -.02                              PERCENT DISCREPANCY =                -.03



0


          TIME SUMMARY AT END OF TIME STEP 12 IN STRESS PERIOD  1
                               SECONDS        MINUTES         HOURS          DAYS           YEARS
                           ---------------------------------------------------------------------------
      TIME STEP LENGTH         .126458E+08    210763.        3512.72        146.363        .400721    
    STRESS PERIOD TIME         .376449E+08    627416.        10456.9        435.705        1.19290    
 TOTAL SIMULATION TIME         .376449E+08    627416.        10456.9        435.705        1.19290    
1
     6 ITERATIONS FOR TIME STEP  13 IN STRESS PERIOD  1
0MAXIMUM HEAD CHANGE FOR EACH ITERATION:
0 HEAD CHANGE LAYER,ROW,COL HEAD CHANGE LAYER,ROW,COL HEAD CHANGE LAYER,ROW,COL HEAD CHANGE LAYER,ROW,COL HEAD CHANGE LAYER,ROW,COL
 ------------------------------------------------------------------------------------------------------------------------------------
   -.1057E-01 (  1, 32,  3)  -.1092E-01 (  1, 32, 17)  -.1609E-01 (  1, 31,  9)  -.2265E-01 (  1, 23, 19)  -.1883E-01 (  1, 20, 10)
   -.4314E-02 (  1, 29, 30)
0
0HEAD/DRAWDOWN PRINTOUT FLAG = 0     TOTAL BUDGET PRINTOUT FLAG = 1     CELL-BY-CELL FLOW TERM FLAG = 0
0OUTPUT FLAGS FOR ALL LAYERS ARE THE SAME:
   HEAD    DRAWDOWN  HEAD  DRAWDOWN
 PRINTOUT  PRINTOUT  SAVE    SAVE
 ----------------------------------
     0         0       0       0
0


                              VOLUMETRIC BUDGET FOR ENTIRE MODEL AT END OF TIME STEP 13 IN STRESS PERIOD  1
                              -----------------------------------------------------------------------------
0                   CUMULATIVE VOLUMES      L**3                                     RATES FOR THIS TIME STEP      L**3/T
                    ------------------                                               ------------------------

                          IN:                                                                    IN:
                          ---                                                                    ---
                            STORAGE =    .79953E+06                                                STORAGE =    .43853E-02
                      CONSTANT HEAD =    .17161E+07                                          CONSTANT HEAD =    .30795E-01
                           RECHARGE =    .40144E+08                                               RECHARGE =    .70909    
0                          TOTAL IN =    .42660E+08                                               TOTAL IN =    .74427    
0                        OUT:                                                                   OUT:
                         ----                                                                   ----
                            STORAGE =    2064.3                                                    STORAGE =    .00000    
                      CONSTANT HEAD =    .42666E+08                                          CONSTANT HEAD =    .74442    
                           RECHARGE =    .00000                                                   RECHARGE =    .00000    
0                         TOTAL OUT =    .42668E+08                                              TOTAL OUT =    .74442    
0                          IN - OUT =   -8388.0                                                   IN - OUT =   -.15229E-03
0               PERCENT DISCREPANCY =                -.02                              PERCENT DISCREPANCY =                -.02



0


          TIME SUMMARY AT END OF TIME STEP 13 IN STRESS PERIOD  1
                               SECONDS        MINUTES         HOURS          DAYS           YEARS
                           ---------------------------------------------------------------------------
      TIME STEP LENGTH         .189687E+08    316144.        5269.07        219.545        .601081    
    STRESS PERIOD TIME         .566136E+08    943560.        15726.0        655.250        1.79398    
 TOTAL SIMULATION TIME         .566136E+08    943560.        15726.0        655.250        1.79398    
1
     1 ITERATIONS FOR TIME STEP  14 IN STRESS PERIOD  1
0MAXIMUM HEAD CHANGE FOR EACH ITERATION:
0 HEAD CHANGE LAYER,ROW,COL HEAD CHANGE LAYER,ROW,COL HEAD CHANGE LAYER,ROW,COL HEAD CHANGE LAYER,ROW,COL HEAD CHANGE LAYER,ROW,COL
 ------------------------------------------------------------------------------------------------------------------------------------
   -.5633E-02 (  1,  6, 34)
0
0HEAD/DRAWDOWN PRINTOUT FLAG = 1     TOTAL BUDGET PRINTOUT FLAG = 1     CELL-BY-CELL FLOW TERM FLAG = 0
0OUTPUT FLAGS FOR ALL LAYERS ARE THE SAME:
   HEAD    DRAWDOWN  HEAD  DRAWDOWN
 PRINTOUT  PRINTOUT  SAVE    SAVE
 ----------------------------------
     1         0       1       0
1                      HEAD IN LAYER  1 AT END OF TIME STEP 14 IN STRESS PERIOD  1
           -----------------------------------------------------------------------

           1       2       3       4       5       6       7       8       9      10      11      12      13      14      15
          16      17      18      19      20      21      22      23      24      25      26      27      28      29      30
          31      32      33      34      35      36      37
 ................................................................................................................................
0  1    99.00   99.00   99.00   99.00   99.00   99.00   99.00   99.00   99.00   99.00   99.00   99.00   99.00   99.00   99.00
        99.00   99.00   99.00   99.00   99.00   99.00   99.00   99.00   99.00   99.00   99.00   99.00   99.00   99.00   99.00
        99.00   99.00   99.00   99.00   99.00   99.00   99.00
0  2    99.00  131.69  131.11  130.64  130.26  129.96  129.72  129.52  129.39  129.30  129.20  129.11  128.96  128.73  128.44
       128.15  127.83  127.50  127.16  126.80  126.43  126.04  125.63  125.22  124.93  124.77  124.61  124.45  124.16  123.69
       123.11  122.47   99.00   99.00   99.00   99.00   99.00
0  3    99.00  131.37  130.73  130.24  129.85  129.55  129.30  129.10  128.97  128.87  128.78  128.68  128.54  128.30  128.01
       127.70  127.38  127.03  126.67  126.28  125.86  125.42  124.94  124.42  124.03  123.81  123.58  123.34  122.89  122.04
       120.69  118.00  118.00   99.00   99.00   99.00   99.00
0  4    99.00  130.78  129.92  129.38  128.98  128.68  128.43  128.24  128.10  128.01  127.92  127.83  127.68  127.45  127.16
       126.86  126.54  126.20  125.84  125.45  125.04  124.60  124.14  123.64  123.27  123.07  122.86  122.65  122.24  121.53
       120.51  118.92  116.50  110.00   99.00   99.00   99.00
0  5    99.00  130.00  128.48  127.90  127.53  127.25  127.03  126.85  126.73  126.65  126.56  126.48  126.34  126.13  125.86
       125.58  125.28  124.95  124.61  124.24  123.84  123.42  122.98  122.50  122.16  121.97  121.77  121.57  121.19  120.53
       119.58  118.07  115.41  110.97   98.00   99.00   99.00
0  6    99.00  126.00  125.90  125.74  125.56  125.40  125.25  125.12  125.03  124.96  124.89  124.82  124.71  124.53  124.29
       124.04  123.76  123.45  123.12  122.76  122.38  121.97  121.53  121.06  120.72  120.52  120.33  120.12  119.74  119.08
       118.12  116.60  113.98  109.31  102.19   93.00   99.00
0  7    99.00  123.00  123.61  123.82  123.85  123.79  123.71  123.63  123.56  123.51  123.46  123.40  123.31  123.15  122.94
       122.70  122.43  122.14  121.81  121.46  121.07  120.66  120.21  119.73  119.37  119.17  118.97  118.76  118.35  117.65
       116.61  114.93  111.85  106.94  101.02   88.00   99.00
0  8    99.00  120.00  121.77  122.36  122.56  122.59  122.57  122.52  122.47  122.43  122.39  122.34  122.26  122.12  121.92
       121.69  121.42  121.12  120.80  120.44  120.04  119.62  119.16  118.66  118.29  118.08  117.87  117.65  117.22  116.47
       115.34  113.40  110.12  105.37   99.81   86.00   99.00
0  9    99.00  118.00  120.33  121.27  121.60  121.71  121.72  121.69  121.66  121.63  121.59  121.55  121.48  121.35  121.15
       120.92  120.65  120.34  120.01  119.64  119.24  118.80  118.33  117.82  117.44  117.22  117.00  116.77  116.33  115.54
       114.33  112.29  109.03  104.38   99.08   85.50   99.00
0 10    99.00  116.00  119.30  120.44  120.87  121.02  121.07  121.06  121.03  121.01  120.98  120.94  120.88  120.74  120.55
       120.31  120.03  119.72  119.38  119.00  118.59  118.14  117.66  117.13  116.74  116.52  116.29  116.06  115.60  114.79
       113.54  111.47  108.21  103.67   98.46   85.00   99.00
0 11    99.00  115.50  118.59  119.81  120.30  120.49  120.55  120.56  120.54  120.52  120.50  120.47  120.40  120.27  120.06
       119.81  119.53  119.21  118.85  118.47  118.04  117.59  117.09  116.56  116.16  115.94  115.70  115.46  115.00  114.17
       112.89  110.79  107.53  103.05   97.90   84.50   99.00
0 12    99.00  115.00  118.14  119.40  119.94  120.14  120.22  120.23  120.22  120.21  120.19  120.16  120.10  119.96  119.74
       119.49  119.19  118.86  118.50  118.11  117.68  117.22  116.71  116.17  115.77  115.54  115.30  115.06  114.59  113.74
       112.45  110.34  107.07  102.62   97.50   84.00   99.00
0 13    99.00  114.50  117.83  119.13  119.69  119.91  119.99  120.02  120.01  120.00  119.98  119.96  119.90  119.75  119.53
       119.26  118.96  118.63  118.26  117.86  117.43  116.96  116.45  115.90  115.49  115.26  115.02  114.78  114.30  113.45
       112.14  110.02  106.76  102.32   97.21   84.00   99.00
0 14    99.00  114.00  117.53  118.86  119.44  119.67  119.77  119.80  119.79  119.79  119.77  119.75  119.69  119.54  119.31
       119.03  118.73  118.39  118.01  117.61  117.17  116.69  116.18  115.63  115.21  114.98  114.74  114.49  114.00  113.14
       111.82  109.69  106.43  102.01   96.90   84.00   99.00
0 15    99.00  113.50  117.22  118.59  119.20  119.44  119.54  119.58  119.58  119.57  119.56  119.53  119.47  119.32  119.08
       118.80  118.48  118.14  117.76  117.35  116.90  116.42  115.90  115.34  114.92  114.68  114.44  114.19  113.70  112.83
       111.49  109.35  106.09  101.69   96.56   84.00   99.00
0 16    99.00  113.00  116.92  118.33  118.95  119.20  119.31  119.35  119.36  119.35  119.34  119.31  119.24  119.08  118.84
       118.56  118.24  117.89  117.50  117.08  116.62  116.14  115.62  115.05  114.62  114.38  114.13  113.87  113.38  112.50
       111.15  108.99  105.74  101.35   96.21   84.00   99.00
0 17    99.00  112.50  116.62  118.06  118.71  118.97  119.08  119.13  119.13  119.13  119.11  119.07  118.99  118.83  118.58
       118.30  117.97  117.62  117.22  116.80  116.34  115.85  115.32  114.74  114.31  114.07  113.81  113.55  113.05  112.15
       110.79  108.62  105.38  101.00   95.83   84.00   99.00
0 18    99.00  112.00  116.32  117.80  118.46  118.73  118.85  118.89  118.90  118.89  118.86  118.82  118.73  118.56  118.31
       118.03  117.70  117.34  116.93  116.49  116.04  115.56  115.02  114.43  113.99  113.74  113.48  113.21  112.70  111.79
       110.41  108.22  105.00  100.64   95.43   84.00   99.00
0 19    99.00  111.50  116.02  117.54  118.21  118.49  118.61  118.65  118.65  118.64  118.61  118.56  118.46  118.29  118.04
       117.75  117.42  117.05  116.64  116.19  115.74  115.25  114.71  114.10  113.65  113.40  113.13  112.86  112.34  111.41
       110.01  107.81  104.61  100.26   94.99   84.00   99.00
0 20    99.00  111.30  115.73  117.27  117.97  118.25  118.38  118.41  118.40  118.38  118.35  118.29  118.19  118.02  117.76
       117.47  117.13  116.75  116.34  115.89  115.43  114.94  114.38  113.77  113.31  113.04  112.77  112.49  111.95  111.00
       109.58  107.37  104.20   99.86   94.52   84.00   99.00
0 21    99.00  111.00  115.44  117.01  117.72  118.02  118.14  118.17  118.15  118.13  118.09  118.03  117.93  117.74  117.47
       117.18  116.84  116.46  116.04  115.59  115.12  114.61  114.05  113.42  112.94  112.67  112.40  112.11  111.55  110.57
       109.12  106.90  103.77   99.45   94.00   84.00   99.00
0 22    99.00  110.80  115.15  116.76  117.48  117.78  117.90  117.93  117.91  117.87  117.83  117.76  117.66  117.46  117.19
       116.89  116.55  116.17  115.75  115.29  114.80  114.28  113.70  113.05  112.57  112.29  112.00  111.70  111.12  110.11
       108.62  106.39  103.33   99.02   93.44   84.00   99.00
0 23    99.00  110.60  114.87  116.50  117.23  117.54  117.66  117.68  117.66  117.62  117.57  117.50  117.39  117.18  116.91
       116.60  116.26  115.88  115.45  114.98  114.48  113.94  113.34  112.67  112.17  111.88  111.58  111.27  110.66  109.61
       108.08  105.84  102.86   98.57   92.83   84.00   99.00
0 24    99.00  110.40  114.58  116.24  116.99  117.30  117.42  117.44  117.41  117.37  117.30  117.23  117.12  116.90  116.63
       116.31  115.97  115.58  115.15  114.68  114.15  113.59  112.97  112.28  111.76  111.45  111.14  110.81  110.17  109.07
       107.48  105.23  102.37   98.10   92.14   84.00   99.00
0 25    99.00  109.00  114.30  115.99  116.75  117.06  117.18  117.20  117.16  117.11  117.04  116.97  116.84  116.62  116.34
       116.02  115.68  115.29  114.85  114.37  113.82  113.24  112.59  111.87  111.32  111.00  110.67  110.32  109.64  108.46
       106.79  104.54  101.85   97.60   91.37   84.00   99.00
0 26    99.00  108.00  113.88  115.61  116.38  116.70  116.81  116.82  116.77  116.70  116.64  116.55  116.42  116.20  115.91
       115.58  115.24  114.84  114.39  113.89  113.31  112.69  111.99  111.22  110.62  110.26  109.89  109.51  108.75  107.38
       105.49  103.25  101.00   96.81   89.94   84.00   99.00
0 27    99.00  107.00  113.35  115.12  115.90  116.21  116.33  116.32  116.24  116.17  116.10  116.01  115.87  115.64  115.35
       115.01  114.66  114.25  113.78  113.24  112.63  111.95  111.18  110.28  109.58  109.17  108.72  108.25  107.32  105.72
       103.43  101.28   99.75   95.65   85.00   84.00   99.00
0 28    99.00  106.00  112.73  114.56  115.33  115.63  115.73  115.70  115.62  115.55  115.47  115.37  115.23  114.98  114.69
       114.36  113.98  113.55  113.06  112.48  111.82  111.07  110.17  109.08  108.19  107.66  107.11  106.57  105.50  103.68
       101.15   99.13   97.89   86.00   99.00   99.00   99.00
0 29    99.00  105.00  111.98  113.84  114.62  114.90  114.97  114.90  114.81  114.74  114.66  114.56  114.40  114.16  113.85
       113.51  113.11  112.66  112.13  111.50  110.78  109.92  108.83  107.37  106.20  105.59  104.91  104.24  102.99  100.88
        93.00   96.00   95.18   87.00   99.00   99.00   99.00
0 30    99.00  103.00  111.20  113.01  113.78  114.05  114.08  113.99  113.89  113.82  113.72  113.62  113.47  113.23  112.90
       112.55  112.13  111.66  111.11  110.45  109.66  108.68  107.37  105.23  102.87  100.00   99.00   97.00   96.00   94.00
        93.00   99.00   90.00   99.00   99.00   99.00   99.00
0 31    99.00  102.00  110.35  112.08  112.84  113.09  113.09  112.99  112.90  112.82  112.74  112.64  112.50  112.25  111.93
       111.57  111.16  110.67  110.09  109.41  108.58  107.54  106.10  103.87  101.79  100.00   99.00   99.00   99.00   99.00
        99.00   99.00   99.00   99.00   99.00   99.00   99.00
0 32    99.00  101.00  109.40  111.01  111.71  111.95  111.96  111.90  111.82  111.76  111.69  111.61  111.46  111.22  110.91
       110.57  110.16  109.66  109.05  108.34  107.46  106.38  104.95  102.88  101.15  100.00   99.00   99.00   99.00   99.00
        99.00   99.00   99.00   99.00   99.00   99.00   99.00
0 33    99.00  100.00  108.38  109.87  110.44  110.64  110.67  110.64  110.58  110.53  110.46  110.37  110.23  110.01  109.74
       109.42  109.01  108.49  107.85  107.09  106.18  105.15  103.89  102.02  100.00  100.00   99.00   99.00   99.00   99.00
        99.00   99.00   99.00   99.00   99.00   99.00   99.00
0 34    99.00  100.00  107.11  108.70  109.18  109.32  109.33  109.27  109.21  109.16  109.09  109.01  108.89  108.70  108.48
       108.18  107.77  107.22  106.53  105.75  104.91  104.07  103.06  101.00   99.00   99.00   99.00   99.00   99.00   99.00
        99.00   99.00   99.00   99.00   99.00   99.00   99.00
0 35    99.00   99.00  100.00  107.45  107.83  107.85  107.78  107.72  107.66  107.62  107.57  107.52  107.44  107.31  107.16
       106.92  106.51  105.94  105.03  103.00  102.00  102.00  102.00   99.00   99.00   99.00   99.00   99.00   99.00   99.00
        99.00   99.00   99.00   99.00   99.00   99.00   99.00
0 36    99.00   99.00  100.00  105.96  106.07  105.50  104.00  104.00  104.00  104.00  104.00  104.00  104.00  104.00  105.00
       105.00  104.00  104.00  103.00   99.00   99.00   99.00   99.00   99.00   99.00   99.00   99.00   99.00   99.00   99.00
        99.00   99.00   99.00   99.00   99.00   99.00   99.00
0 37    99.00   99.00  100.00  104.25  104.15  103.00   99.00   99.00   99.00   99.00   99.00   99.00   99.00   99.00   99.00
        99.00   99.00   99.00   99.00   99.00   99.00   99.00   99.00   99.00   99.00   99.00   99.00   99.00   99.00   99.00
        99.00   99.00   99.00   99.00   99.00   99.00   99.00
0 38    99.00   99.00  100.00  101.00  102.00   99.00   99.00   99.00   99.00   99.00   99.00   99.00   99.00   99.00   99.00
        99.00   99.00   99.00   99.00   99.00   99.00   99.00   99.00   99.00   99.00   99.00   99.00   99.00   99.00   99.00
        99.00   99.00   99.00   99.00   99.00   99.00   99.00
0 39    99.00   99.00   99.00   99.00   99.00   99.00   99.00   99.00   99.00   99.00   99.00   99.00   99.00   99.00   99.00
        99.00   99.00   99.00   99.00   99.00   99.00   99.00   99.00   99.00   99.00   99.00   99.00   99.00   99.00   99.00
        99.00   99.00   99.00   99.00   99.00   99.00   99.00
0HEAD WILL BE SAVED ON UNIT 30 AT END OF TIME STEP 14, STRESS PERIOD  1
0


                              VOLUMETRIC BUDGET FOR ENTIRE MODEL AT END OF TIME STEP 14 IN STRESS PERIOD  1
                              -----------------------------------------------------------------------------
0                   CUMULATIVE VOLUMES      L**3                                     RATES FOR THIS TIME STEP      L**3/T
                    ------------------                                               ------------------------

                          IN:                                                                    IN:
                          ---                                                                    ---
                            STORAGE =    .80739E+06                                                STORAGE =    .27632E-03
                      CONSTANT HEAD =    .25934E+07                                          CONSTANT HEAD =    .30832E-01
                           RECHARGE =    .60320E+08                                               RECHARGE =    .70909    
0                          TOTAL IN =    .63721E+08                                               TOTAL IN =    .74020    
0                        OUT:                                                                   OUT:
                         ----                                                                   ----
                            STORAGE =    2066.9                                                    STORAGE =    .93992E-07
                      CONSTANT HEAD =    .63836E+08                                          CONSTANT HEAD =    .74402    
                           RECHARGE =    .00000                                                   RECHARGE =    .00000    
0                         TOTAL OUT =    .63838E+08                                              TOTAL OUT =    .74402    
0                          IN - OUT =   -.11709E+06                                               IN - OUT =   -.38202E-02
0               PERCENT DISCREPANCY =                -.18                              PERCENT DISCREPANCY =                -.51



0


          TIME SUMMARY AT END OF TIME STEP 14 IN STRESS PERIOD  1
                               SECONDS        MINUTES         HOURS          DAYS           YEARS
                           ---------------------------------------------------------------------------
      TIME STEP LENGTH         .284530E+08    474217.        7903.61        329.317        .901621    
    STRESS PERIOD TIME         .850666E+08    .141778E+07    23629.6        984.567        2.69560    
 TOTAL SIMULATION TIME         .850666E+08    .141778E+07    23629.6        984.567        2.69560    
1
     1 ITERATIONS FOR TIME STEP  15 IN STRESS PERIOD  1
0MAXIMUM HEAD CHANGE FOR EACH ITERATION:
0 HEAD CHANGE LAYER,ROW,COL HEAD CHANGE LAYER,ROW,COL HEAD CHANGE LAYER,ROW,COL HEAD CHANGE LAYER,ROW,COL HEAD CHANGE LAYER,ROW,COL
 ------------------------------------------------------------------------------------------------------------------------------------
   -.4054E-02 (  1,  8, 34)
0
0HEAD/DRAWDOWN PRINTOUT FLAG = 0     TOTAL BUDGET PRINTOUT FLAG = 1     CELL-BY-CELL FLOW TERM FLAG = 0
0OUTPUT FLAGS FOR ALL LAYERS ARE THE SAME:
   HEAD    DRAWDOWN  HEAD  DRAWDOWN
 PRINTOUT  PRINTOUT  SAVE    SAVE
 ----------------------------------
     0         0       0       0
0


                              VOLUMETRIC BUDGET FOR ENTIRE MODEL AT END OF TIME STEP 15 IN STRESS PERIOD  1
                              -----------------------------------------------------------------------------
0                   CUMULATIVE VOLUMES      L**3                                     RATES FOR THIS TIME STEP      L**3/T
                    ------------------                                               ------------------------

                          IN:                                                                    IN:
                          ---                                                                    ---
                            STORAGE =    .81370E+06                                                STORAGE =    .14792E-03
                      CONSTANT HEAD =    .39104E+07                                          CONSTANT HEAD =    .30858E-01
                           RECHARGE =    .90584E+08                                               RECHARGE =    .70909    
0                          TOTAL IN =    .95308E+08                                               TOTAL IN =    .74010    
0                        OUT:                                                                   OUT:
                         ----                                                                   ----
                            STORAGE =    2067.0                                                    STORAGE =    .21172E-08
                      CONSTANT HEAD =    .95576E+08                                          CONSTANT HEAD =    .74368    
                           RECHARGE =    .00000                                                   RECHARGE =    .00000    
0                         TOTAL OUT =    .95578E+08                                              TOTAL OUT =    .74368    
0                          IN - OUT =   -.27006E+06                                               IN - OUT =   -.35844E-02
0               PERCENT DISCREPANCY =                -.28                              PERCENT DISCREPANCY =                -.48



0


          TIME SUMMARY AT END OF TIME STEP 15 IN STRESS PERIOD  1
                               SECONDS        MINUTES         HOURS          DAYS           YEARS
                           ---------------------------------------------------------------------------
      TIME STEP LENGTH         .426795E+08    711325.        11855.4        493.976        1.35243    
    STRESS PERIOD TIME         .127746E+09    .212910E+07    35485.0        1478.54        4.04803    
 TOTAL SIMULATION TIME         .127746E+09    .212910E+07    35485.0        1478.54        4.04803    
1
     1 ITERATIONS FOR TIME STEP  16 IN STRESS PERIOD  1
0MAXIMUM HEAD CHANGE FOR EACH ITERATION:
0 HEAD CHANGE LAYER,ROW,COL HEAD CHANGE LAYER,ROW,COL HEAD CHANGE LAYER,ROW,COL HEAD CHANGE LAYER,ROW,COL HEAD CHANGE LAYER,ROW,COL
 ------------------------------------------------------------------------------------------------------------------------------------
   -.3137E-02 (  1,  9, 34)
0
0HEAD/DRAWDOWN PRINTOUT FLAG = 1     TOTAL BUDGET PRINTOUT FLAG = 1     CELL-BY-CELL FLOW TERM FLAG = 0
0OUTPUT FLAGS FOR ALL LAYERS ARE THE SAME:
   HEAD    DRAWDOWN  HEAD  DRAWDOWN
 PRINTOUT  PRINTOUT  SAVE    SAVE
 ----------------------------------
     1         0       0       0
1                      HEAD IN LAYER  1 AT END OF TIME STEP 16 IN STRESS PERIOD  1
           -----------------------------------------------------------------------

           1       2       3       4       5       6       7       8       9      10      11      12      13      14      15
          16      17      18      19      20      21      22      23      24      25      26      27      28      29      30
          31      32      33      34      35      36      37
 ................................................................................................................................
0  1    99.00   99.00   99.00   99.00   99.00   99.00   99.00   99.00   99.00   99.00   99.00   99.00   99.00   99.00   99.00
        99.00   99.00   99.00   99.00   99.00   99.00   99.00   99.00   99.00   99.00   99.00   99.00   99.00   99.00   99.00
        99.00   99.00   99.00   99.00   99.00   99.00   99.00
0  2    99.00  131.68  131.10  130.64  130.26  129.96  129.72  129.52  129.38  129.29  129.20  129.11  128.96  128.72  128.44
       128.14  127.83  127.50  127.16  126.80  126.42  126.03  125.63  125.22  124.93  124.77  124.61  124.45  124.16  123.69
       123.10  122.46   99.00   99.00   99.00   99.00   99.00
0  3    99.00  131.37  130.73  130.24  129.85  129.54  129.30  129.10  128.96  128.87  128.78  128.68  128.53  128.29  128.00
       127.70  127.37  127.03  126.66  126.27  125.86  125.41  124.93  124.41  124.03  123.81  123.58  123.34  122.88  122.04
       120.69  118.00  118.00   99.00   99.00   99.00   99.00
0  4    99.00  130.78  129.92  129.38  128.98  128.67  128.43  128.23  128.10  128.01  127.92  127.82  127.68  127.44  127.16
       126.86  126.53  126.19  125.83  125.45  125.04  124.60  124.13  123.63  123.27  123.07  122.86  122.64  122.23  121.53
       120.51  118.91  116.49  110.00   99.00   99.00   99.00
0  5    99.00  130.00  128.48  127.90  127.52  127.25  127.03  126.85  126.73  126.64  126.56  126.47  126.34  126.12  125.86
       125.57  125.27  124.95  124.60  124.23  123.84  123.42  122.97  122.50  122.16  121.96  121.77  121.56  121.18  120.52
       119.57  118.07  115.41  110.96   98.00   99.00   99.00
0  6    99.00  126.00  125.90  125.74  125.56  125.40  125.25  125.12  125.02  124.96  124.89  124.82  124.71  124.52  124.29
       124.03  123.75  123.45  123.12  122.76  122.38  121.96  121.52  121.05  120.71  120.52  120.32  120.12  119.74  119.07
       118.12  116.60  113.97  109.31  102.18   93.00   99.00
0  7    99.00  123.00  123.61  123.82  123.84  123.79  123.71  123.63  123.56  123.51  123.46  123.40  123.31  123.15  122.94
       122.70  122.43  122.13  121.81  121.45  121.07  120.65  120.20  119.72  119.37  119.17  118.96  118.75  118.35  117.64
       116.61  114.92  111.84  106.93  101.01   88.00   99.00
0  8    99.00  120.00  121.76  122.36  122.56  122.59  122.57  122.52  122.47  122.43  122.39  122.34  122.26  122.12  121.92
       121.69  121.42  121.12  120.79  120.43  120.04  119.62  119.15  118.66  118.29  118.08  117.87  117.64  117.22  116.47
       115.34  113.39  110.11  105.37   99.81   86.00   99.00
0  9    99.00  118.00  120.33  121.27  121.60  121.70  121.72  121.69  121.66  121.63  121.59  121.55  121.48  121.34  121.15
       120.91  120.65  120.34  120.01  119.64  119.24  118.80  118.33  117.82  117.44  117.22  117.00  116.77  116.33  115.54
       114.33  112.28  109.02  104.38   99.07   85.50   99.00
0 10    99.00  116.00  119.30  120.44  120.87  121.02  121.07  121.06  121.03  121.01  120.98  120.94  120.88  120.74  120.54
       120.31  120.03  119.72  119.37  119.00  118.59  118.14  117.65  117.13  116.74  116.52  116.29  116.06  115.60  114.79
       113.53  111.46  108.20  103.66   98.45   85.00   99.00
0 11    99.00  115.50  118.59  119.80  120.30  120.49  120.55  120.56  120.54  120.52  120.50  120.47  120.40  120.27  120.06
       119.81  119.53  119.21  118.85  118.46  118.04  117.59  117.09  116.56  116.16  115.93  115.70  115.46  114.99  114.16
       112.88  110.79  107.52  103.04   97.89   84.50   99.00
0 12    99.00  115.00  118.14  119.40  119.93  120.14  120.22  120.23  120.22  120.21  120.19  120.16  120.10  119.96  119.74
       119.48  119.19  118.86  118.50  118.11  117.68  117.22  116.71  116.17  115.77  115.54  115.30  115.06  114.58  113.74
       112.44  110.33  107.07  102.61   97.49   84.00   99.00
0 13    99.00  114.50  117.83  119.13  119.69  119.91  119.99  120.02  120.01  120.00  119.98  119.95  119.90  119.75  119.53
       119.26  118.96  118.63  118.26  117.86  117.43  116.96  116.45  115.90  115.49  115.26  115.02  114.77  114.30  113.45
       112.14  110.01  106.75  102.31   97.20   84.00   99.00
0 14    99.00  114.00  117.53  118.86  119.44  119.67  119.77  119.80  119.79  119.79  119.77  119.75  119.69  119.54  119.31
       119.03  118.72  118.39  118.01  117.61  117.17  116.69  116.18  115.62  115.21  114.98  114.74  114.48  114.00  113.14
       111.82  109.68  106.42  102.00   96.89   84.00   99.00
0 15    99.00  113.50  117.22  118.59  119.20  119.44  119.54  119.58  119.58  119.57  119.56  119.53  119.47  119.32  119.08
       118.80  118.48  118.14  117.76  117.35  116.90  116.42  115.90  115.34  114.92  114.68  114.44  114.18  113.69  112.82
       111.49  109.34  106.08  101.68   96.56   84.00   99.00
0 16    99.00  113.00  116.92  118.33  118.95  119.20  119.31  119.35  119.36  119.35  119.34  119.31  119.24  119.08  118.84
       118.56  118.23  117.88  117.50  117.08  116.62  116.14  115.62  115.05  114.62  114.38  114.13  113.87  113.38  112.49
       111.15  108.98  105.73  101.34   96.21   84.00   99.00
0 17    99.00  112.50  116.61  118.06  118.70  118.97  119.08  119.13  119.13  119.13  119.11  119.07  118.99  118.82  118.58
       118.30  117.97  117.62  117.22  116.79  116.34  115.85  115.32  114.74  114.31  114.07  113.81  113.55  113.04  112.15
       110.78  108.61  105.37  100.99   95.83   84.00   99.00
0 18    99.00  112.00  116.31  117.80  118.46  118.73  118.85  118.89  118.90  118.89  118.86  118.82  118.73  118.56  118.31
       118.02  117.70  117.33  116.93  116.49  116.04  115.56  115.02  114.43  113.99  113.74  113.48  113.21  112.70  111.79
       110.40  108.22  104.99  100.63   95.42   84.00   99.00
0 19    99.00  111.50  116.02  117.53  118.21  118.49  118.61  118.65  118.65  118.64  118.61  118.55  118.46  118.29  118.04
       117.75  117.41  117.04  116.64  116.19  115.74  115.25  114.70  114.10  113.65  113.40  113.13  112.86  112.33  111.41
       110.00  107.80  104.60  100.25   94.98   84.00   99.00
0 20    99.00  111.30  115.72  117.27  117.97  118.25  118.38  118.41  118.40  118.38  118.35  118.29  118.19  118.01  117.76
       117.47  117.13  116.75  116.34  115.88  115.43  114.94  114.38  113.76  113.31  113.04  112.77  112.49  111.95  111.00
       109.58  107.36  104.20   99.86   94.51   84.00   99.00
0 21    99.00  111.00  115.44  117.01  117.72  118.01  118.14  118.17  118.15  118.13  118.09  118.03  117.93  117.74  117.47
       117.18  116.84  116.46  116.04  115.59  115.12  114.61  114.05  113.42  112.94  112.67  112.39  112.11  111.55  110.57
       109.12  106.89  103.77   99.44   94.00   84.00   99.00
0 22    99.00  110.80  115.15  116.75  117.48  117.78  117.90  117.93  117.90  117.87  117.83  117.76  117.66  117.46  117.19
       116.89  116.55  116.17  115.74  115.28  114.80  114.28  113.70  113.05  112.57  112.29  112.00  111.70  111.12  110.11
       108.62  106.39  103.32   99.01   93.44   84.00   99.00
0 23    99.00  110.60  114.86  116.50  117.23  117.54  117.66  117.68  117.66  117.62  117.56  117.50  117.39  117.18  116.91
       116.60  116.26  115.88  115.45  114.98  114.48  113.94  113.34  112.67  112.17  111.88  111.58  111.27  110.66  109.61
       108.08  105.83  102.86   98.56   92.82   84.00   99.00
0 24    99.00  110.40  114.58  116.24  116.99  117.30  117.42  117.44  117.41  117.37  117.30  117.23  117.12  116.90  116.62
       116.31  115.97  115.58  115.15  114.67  114.15  113.59  112.97  112.28  111.76  111.45  111.14  110.81  110.17  109.06
       107.47  105.22  102.37   98.09   92.14   84.00   99.00
0 25    99.00  109.00  114.30  115.99  116.75  117.06  117.18  117.20  117.16  117.10  117.04  116.97  116.84  116.62  116.34
       116.02  115.67  115.29  114.85  114.37  113.82  113.23  112.59  111.87  111.32  111.00  110.67  110.32  109.64  108.46
       106.79  104.54  101.85   97.60   91.37   84.00   99.00
0 26    99.00  108.00  113.88  115.61  116.38  116.70  116.81  116.82  116.77  116.70  116.63  116.55  116.42  116.20  115.91
       115.58  115.23  114.84  114.39  113.88  113.31  112.69  111.99  111.21  110.61  110.26  109.89  109.51  108.75  107.37
       105.49  103.24  101.00   96.80   89.93   84.00   99.00
0 27    99.00  107.00  113.34  115.12  115.89  116.21  116.33  116.31  116.24  116.17  116.10  116.01  115.87  115.64  115.34
       115.01  114.66  114.25  113.78  113.23  112.63  111.95  111.17  110.27  109.58  109.17  108.72  108.25  107.32  105.72
       103.42  101.27   99.75   95.65   85.00   84.00   99.00
0 28    99.00  106.00  112.73  114.55  115.33  115.63  115.73  115.70  115.61  115.55  115.47  115.37  115.22  114.98  114.69
       114.35  113.98  113.55  113.05  112.47  111.82  111.07  110.17  109.08  108.19  107.66  107.11  106.56  105.50  103.68
       101.15   99.13   97.88   86.00   99.00   99.00   99.00
0 29    99.00  105.00  111.97  113.84  114.62  114.90  114.97  114.90  114.81  114.74  114.65  114.55  114.40  114.16  113.85
       113.51  113.11  112.65  112.12  111.50  110.78  109.91  108.82  107.37  106.19  105.58  104.91  104.24  102.99  100.88
        93.00   96.00   95.18   87.00   99.00   99.00   99.00
0 30    99.00  103.00  111.19  113.01  113.78  114.05  114.08  113.99  113.89  113.81  113.72  113.62  113.47  113.23  112.90
       112.55  112.13  111.66  111.11  110.45  109.65  108.67  107.36  105.23  102.87  100.00   99.00   97.00   96.00   94.00
        93.00   99.00   90.00   99.00   99.00   99.00   99.00
0 31    99.00  102.00  110.35  112.08  112.83  113.08  113.08  112.99  112.89  112.82  112.73  112.64  112.49  112.24  111.92
       111.56  111.16  110.67  110.09  109.40  108.57  107.54  106.10  103.87  101.79  100.00   99.00   99.00   99.00   99.00
        99.00   99.00   99.00   99.00   99.00   99.00   99.00
0 32    99.00  101.00  109.39  111.01  111.70  111.94  111.96  111.89  111.82  111.76  111.69  111.60  111.46  111.22  110.91
       110.56  110.15  109.66  109.05  108.34  107.46  106.38  104.94  102.87  101.15  100.00   99.00   99.00   99.00   99.00
        99.00   99.00   99.00   99.00   99.00   99.00   99.00
0 33    99.00  100.00  108.37  109.86  110.43  110.64  110.67  110.63  110.57  110.52  110.45  110.36  110.23  110.00  109.74
       109.41  109.01  108.49  107.84  107.09  106.18  105.15  103.88  102.02  100.00  100.00   99.00   99.00   99.00   99.00
        99.00   99.00   99.00   99.00   99.00   99.00   99.00
0 34    99.00  100.00  107.11  108.70  109.18  109.32  109.32  109.27  109.21  109.15  109.09  109.01  108.89  108.70  108.48
       108.18  107.77  107.22  106.53  105.75  104.91  104.07  103.05  101.00   99.00   99.00   99.00   99.00   99.00   99.00
        99.00   99.00   99.00   99.00   99.00   99.00   99.00
0 35    99.00   99.00  100.00  107.45  107.83  107.85  107.78  107.71  107.66  107.62  107.57  107.52  107.44  107.31  107.16
       106.91  106.51  105.94  105.03  103.00  102.00  102.00  102.00   99.00   99.00   99.00   99.00   99.00   99.00   99.00
        99.00   99.00   99.00   99.00   99.00   99.00   99.00
0 36    99.00   99.00  100.00  105.96  106.07  105.49  104.00  104.00  104.00  104.00  104.00  104.00  104.00  104.00  105.00
       105.00  104.00  104.00  103.00   99.00   99.00   99.00   99.00   99.00   99.00   99.00   99.00   99.00   99.00   99.00
        99.00   99.00   99.00   99.00   99.00   99.00   99.00
0 37    99.00   99.00  100.00  104.25  104.15  103.00   99.00   99.00   99.00   99.00   99.00   99.00   99.00   99.00   99.00
        99.00   99.00   99.00   99.00   99.00   99.00   99.00   99.00   99.00   99.00   99.00   99.00   99.00   99.00   99.00
        99.00   99.00   99.00   99.00   99.00   99.00   99.00
0 38    99.00   99.00  100.00  101.00  102.00   99.00   99.00   99.00   99.00   99.00   99.00   99.00   99.00   99.00   99.00
        99.00   99.00   99.00   99.00   99.00   99.00   99.00   99.00   99.00   99.00   99.00   99.00   99.00   99.00   99.00
        99.00   99.00   99.00   99.00   99.00   99.00   99.00
0 39    99.00   99.00   99.00   99.00   99.00   99.00   99.00   99.00   99.00   99.00   99.00   99.00   99.00   99.00   99.00
        99.00   99.00   99.00   99.00   99.00   99.00   99.00   99.00   99.00   99.00   99.00   99.00   99.00   99.00   99.00
        99.00   99.00   99.00   99.00   99.00   99.00   99.00
0


                              VOLUMETRIC BUDGET FOR ENTIRE MODEL AT END OF TIME STEP 16 IN STRESS PERIOD  1
                              -----------------------------------------------------------------------------
0                   CUMULATIVE VOLUMES      L**3                                     RATES FOR THIS TIME STEP      L**3/T
                    ------------------                                               ------------------------

                          IN:                                                                    IN:
                          ---                                                                    ---
                            STORAGE =    .81908E+06                                                STORAGE =    .83897E-04
                      CONSTANT HEAD =    .58873E+07                                          CONSTANT HEAD =    .30880E-01
                           RECHARGE =    .13598E+09                                               RECHARGE =    .70909    
0                          TOTAL IN =    .14269E+09                                               TOTAL IN =    .74005    
0                        OUT:                                                                   OUT:
                         ----                                                                   ----
                            STORAGE =    2067.0                                                    STORAGE =    .00000    
                      CONSTANT HEAD =    .14317E+09                                          CONSTANT HEAD =    .74341    
                           RECHARGE =    .00000                                                   RECHARGE =    .00000    
0                         TOTAL OUT =    .14317E+09                                              TOTAL OUT =    .74341    
0                          IN - OUT =   -.48520E+06                                               IN - OUT =   -.33606E-02
0               PERCENT DISCREPANCY =                -.34                              PERCENT DISCREPANCY =                -.45



0


          TIME SUMMARY AT END OF TIME STEP 16 IN STRESS PERIOD  1
                               SECONDS        MINUTES         HOURS          DAYS           YEARS
                           ---------------------------------------------------------------------------
      TIME STEP LENGTH         .640193E+08    .106699E+07    17783.1        740.964        2.02865    
    STRESS PERIOD TIME         .191765E+09    .319609E+07    53268.2        2219.51        6.07668    
 TOTAL SIMULATION TIME         .191765E+09    .319609E+07    53268.2        2219.51        6.07668    
1
     1 ITERATIONS FOR TIME STEP  17 IN STRESS PERIOD  1
0MAXIMUM HEAD CHANGE FOR EACH ITERATION:
0 HEAD CHANGE LAYER,ROW,COL HEAD CHANGE LAYER,ROW,COL HEAD CHANGE LAYER,ROW,COL HEAD CHANGE LAYER,ROW,COL HEAD CHANGE LAYER,ROW,COL
 ------------------------------------------------------------------------------------------------------------------------------------
   -.2511E-02 (  1, 10, 34)
0
0HEAD/DRAWDOWN PRINTOUT FLAG = 0     TOTAL BUDGET PRINTOUT FLAG = 1     CELL-BY-CELL FLOW TERM FLAG = 0
0OUTPUT FLAGS FOR ALL LAYERS ARE THE SAME:
   HEAD    DRAWDOWN  HEAD  DRAWDOWN
 PRINTOUT  PRINTOUT  SAVE    SAVE
 ----------------------------------
     0         0       0       0
0


                              VOLUMETRIC BUDGET FOR ENTIRE MODEL AT END OF TIME STEP 17 IN STRESS PERIOD  1
                              -----------------------------------------------------------------------------
0                   CUMULATIVE VOLUMES      L**3                                     RATES FOR THIS TIME STEP      L**3/T
                    ------------------                                               ------------------------

                          IN:                                                                    IN:
                          ---                                                                    ---
                            STORAGE =    .82370E+06                                                STORAGE =    .48113E-04
                      CONSTANT HEAD =    .88545E+07                                          CONSTANT HEAD =    .30899E-01
                           RECHARGE =    .20407E+09                                               RECHARGE =    .70909    
0                          TOTAL IN =    .21375E+09                                               TOTAL IN =    .74004    
0                        OUT:                                                                   OUT:
                         ----                                                                   ----
                            STORAGE =    2067.0                                                    STORAGE =    .00000    
                      CONSTANT HEAD =    .21454E+09                                          CONSTANT HEAD =    .74320    
                           RECHARGE =    .00000                                                   RECHARGE =    .00000    
0                         TOTAL OUT =    .21454E+09                                              TOTAL OUT =    .74320    
0                          IN - OUT =   -.78891E+06                                               IN - OUT =   -.31628E-02
0               PERCENT DISCREPANCY =                -.37                              PERCENT DISCREPANCY =                -.43



0


          TIME SUMMARY AT END OF TIME STEP 17 IN STRESS PERIOD  1
                               SECONDS        MINUTES         HOURS          DAYS           YEARS
                           ---------------------------------------------------------------------------
      TIME STEP LENGTH         .960289E+08    .160048E+07    26674.7        1111.45        3.04297    
    STRESS PERIOD TIME         .287794E+09    .479657E+07    79942.8        3330.95        9.11965    
 TOTAL SIMULATION TIME         .287794E+09    .479657E+07    79942.8        3330.95        9.11965    
1
     1 ITERATIONS FOR TIME STEP  18 IN STRESS PERIOD  1
0MAXIMUM HEAD CHANGE FOR EACH ITERATION:
0 HEAD CHANGE LAYER,ROW,COL HEAD CHANGE LAYER,ROW,COL HEAD CHANGE LAYER,ROW,COL HEAD CHANGE LAYER,ROW,COL HEAD CHANGE LAYER,ROW,COL
 ------------------------------------------------------------------------------------------------------------------------------------
   -.1995E-02 (  1, 10, 33)
0
0HEAD/DRAWDOWN PRINTOUT FLAG = 0     TOTAL BUDGET PRINTOUT FLAG = 1     CELL-BY-CELL FLOW TERM FLAG = 0
0OUTPUT FLAGS FOR ALL LAYERS ARE THE SAME:
   HEAD    DRAWDOWN  HEAD  DRAWDOWN
 PRINTOUT  PRINTOUT  SAVE    SAVE
 ----------------------------------
     0         0       0       0
0


                              VOLUMETRIC BUDGET FOR ENTIRE MODEL AT END OF TIME STEP 18 IN STRESS PERIOD  1
                              -----------------------------------------------------------------------------
0                   CUMULATIVE VOLUMES      L**3                                     RATES FOR THIS TIME STEP      L**3/T
                    ------------------                                               ------------------------

                          IN:                                                                    IN:
                          ---                                                                    ---
                            STORAGE =    .82774E+06                                                STORAGE =    .28090E-04
                      CONSTANT HEAD =    .13308E+08                                          CONSTANT HEAD =    .30916E-01
                           RECHARGE =    .30621E+09                                               RECHARGE =    .70909    
0                          TOTAL IN =    .32035E+09                                               TOTAL IN =    .74003    
0                        OUT:                                                                   OUT:
                         ----                                                                   ----
                            STORAGE =    2067.0                                                    STORAGE =    .00000    
                      CONSTANT HEAD =    .32156E+09                                          CONSTANT HEAD =    .74302    
                           RECHARGE =    .00000                                                   RECHARGE =    .00000    
0                         TOTAL OUT =    .32157E+09                                              TOTAL OUT =    .74302    
0                          IN - OUT =   -.12193E+07                                               IN - OUT =   -.29873E-02
0               PERCENT DISCREPANCY =                -.38                              PERCENT DISCREPANCY =                -.40



0


          TIME SUMMARY AT END OF TIME STEP 18 IN STRESS PERIOD  1
                               SECONDS        MINUTES         HOURS          DAYS           YEARS
                           ---------------------------------------------------------------------------
      TIME STEP LENGTH         .144043E+09    .240072E+07    40012.0        1667.17        4.56446    
    STRESS PERIOD TIME         .431838E+09    .719729E+07    119955.        4998.12        13.6841    
 TOTAL SIMULATION TIME         .431838E+09    .719729E+07    119955.        4998.12        13.6841    
1
     1 ITERATIONS FOR TIME STEP  19 IN STRESS PERIOD  1
0MAXIMUM HEAD CHANGE FOR EACH ITERATION:
0 HEAD CHANGE LAYER,ROW,COL HEAD CHANGE LAYER,ROW,COL HEAD CHANGE LAYER,ROW,COL HEAD CHANGE LAYER,ROW,COL HEAD CHANGE LAYER,ROW,COL
 ------------------------------------------------------------------------------------------------------------------------------------
   -.1648E-02 (  1, 10, 33)
0
0HEAD/DRAWDOWN PRINTOUT FLAG = 0     TOTAL BUDGET PRINTOUT FLAG = 1     CELL-BY-CELL FLOW TERM FLAG = 0
0OUTPUT FLAGS FOR ALL LAYERS ARE THE SAME:
   HEAD    DRAWDOWN  HEAD  DRAWDOWN
 PRINTOUT  PRINTOUT  SAVE    SAVE
 ----------------------------------
     0         0       0       0
0


                              VOLUMETRIC BUDGET FOR ENTIRE MODEL AT END OF TIME STEP 19 IN STRESS PERIOD  1
                              -----------------------------------------------------------------------------
0                   CUMULATIVE VOLUMES      L**3                                     RATES FOR THIS TIME STEP      L**3/T
                    ------------------                                               ------------------------

                          IN:                                                                    IN:
                          ---                                                                    ---
                            STORAGE =    .83131E+06                                                STORAGE =    .16528E-04
                      CONSTANT HEAD =    .19991E+08                                          CONSTANT HEAD =    .30931E-01
                           RECHARGE =    .45942E+09                                               RECHARGE =    .70909    
0                          TOTAL IN =    .48024E+09                                               TOTAL IN =    .74004    
0                        OUT:                                                                   OUT:
                         ----                                                                   ----
                            STORAGE =    2067.0                                                    STORAGE =    .00000    
                      CONSTANT HEAD =    .48207E+09                                          CONSTANT HEAD =    .74287    
                           RECHARGE =    .00000                                                   RECHARGE =    .00000    
0                         TOTAL OUT =    .48208E+09                                              TOTAL OUT =    .74287    
0                          IN - OUT =   -.18315E+07                                               IN - OUT =   -.28335E-02
0               PERCENT DISCREPANCY =                -.38                              PERCENT DISCREPANCY =                -.38



0


          TIME SUMMARY AT END OF TIME STEP 19 IN STRESS PERIOD  1
                               SECONDS        MINUTES         HOURS          DAYS           YEARS
                           ---------------------------------------------------------------------------
      TIME STEP LENGTH         .216065E+09    .360108E+07    60018.1        2500.75        6.84669    
    STRESS PERIOD TIME         .647903E+09    .107984E+08    179973.        7498.87        20.5308    
 TOTAL SIMULATION TIME         .647903E+09    .107984E+08    179973.        7498.87        20.5308    
1
     1 ITERATIONS FOR TIME STEP  20 IN STRESS PERIOD  1
0MAXIMUM HEAD CHANGE FOR EACH ITERATION:
0 HEAD CHANGE LAYER,ROW,COL HEAD CHANGE LAYER,ROW,COL HEAD CHANGE LAYER,ROW,COL HEAD CHANGE LAYER,ROW,COL HEAD CHANGE LAYER,ROW,COL
 ------------------------------------------------------------------------------------------------------------------------------------
   -.1406E-02 (  1, 32,  9)
0
0HEAD/DRAWDOWN PRINTOUT FLAG = 1     TOTAL BUDGET PRINTOUT FLAG = 1     CELL-BY-CELL FLOW TERM FLAG = 0
0OUTPUT FLAGS FOR ALL LAYERS ARE THE SAME:
   HEAD    DRAWDOWN  HEAD  DRAWDOWN
 PRINTOUT  PRINTOUT  SAVE    SAVE
 ----------------------------------
     1         0       0       0
1                      HEAD IN LAYER  1 AT END OF TIME STEP 20 IN STRESS PERIOD  1
           -----------------------------------------------------------------------

           1       2       3       4       5       6       7       8       9      10      11      12      13      14      15
          16      17      18      19      20      21      22      23      24      25      26      27      28      29      30
          31      32      33      34      35      36      37
 ................................................................................................................................
0  1    99.00   99.00   99.00   99.00   99.00   99.00   99.00   99.00   99.00   99.00   99.00   99.00   99.00   99.00   99.00
        99.00   99.00   99.00   99.00   99.00   99.00   99.00   99.00   99.00   99.00   99.00   99.00   99.00   99.00   99.00
        99.00   99.00   99.00   99.00   99.00   99.00   99.00
0  2    99.00  131.68  131.10  130.63  130.25  129.95  129.71  129.51  129.38  129.29  129.19  129.10  128.95  128.72  128.43
       128.14  127.82  127.49  127.15  126.79  126.42  126.03  125.63  125.21  124.92  124.76  124.61  124.45  124.15  123.69
       123.10  122.46   99.00   99.00   99.00   99.00   99.00
0  3    99.00  131.37  130.72  130.23  129.84  129.54  129.29  129.09  128.96  128.86  128.77  128.67  128.53  128.29  128.00
       127.69  127.37  127.02  126.66  126.27  125.85  125.41  124.93  124.41  124.02  123.80  123.57  123.34  122.88  122.04
       120.68  118.00  118.00   99.00   99.00   99.00   99.00
0  4    99.00  130.77  129.92  129.38  128.97  128.67  128.43  128.23  128.09  128.00  127.91  127.82  127.67  127.44  127.15
       126.85  126.53  126.19  125.83  125.44  125.03  124.59  124.13  123.63  123.26  123.06  122.85  122.64  122.23  121.52
       120.50  118.91  116.49  110.00   99.00   99.00   99.00
0  5    99.00  130.00  128.48  127.90  127.52  127.24  127.02  126.84  126.72  126.64  126.56  126.47  126.34  126.12  125.85
       125.57  125.27  124.94  124.60  124.23  123.83  123.41  122.97  122.49  122.15  121.96  121.76  121.56  121.18  120.52
       119.57  118.06  115.40  110.96   98.00   99.00   99.00
0  6    99.00  126.00  125.90  125.73  125.56  125.39  125.24  125.11  125.02  124.95  124.89  124.82  124.71  124.52  124.29
       124.03  123.75  123.44  123.11  122.75  122.37  121.96  121.52  121.05  120.70  120.51  120.31  120.11  119.73  119.07
       118.11  116.59  113.97  109.30  102.18   93.00   99.00
0  7    99.00  123.00  123.61  123.82  123.84  123.79  123.71  123.62  123.56  123.51  123.46  123.40  123.31  123.15  122.94
       122.70  122.43  122.13  121.80  121.45  121.06  120.65  120.20  119.72  119.36  119.16  118.96  118.74  118.34  117.64
       116.60  114.91  111.83  106.93  101.01   88.00   99.00
0  8    99.00  120.00  121.76  122.36  122.55  122.59  122.56  122.51  122.46  122.43  122.38  122.34  122.26  122.11  121.91
       121.68  121.42  121.12  120.79  120.43  120.04  119.61  119.15  118.65  118.28  118.08  117.86  117.64  117.21  116.46
       115.33  113.39  110.11  105.36   99.80   86.00   99.00
0  9    99.00  118.00  120.33  121.27  121.60  121.70  121.72  121.69  121.65  121.63  121.59  121.55  121.48  121.34  121.14
       120.91  120.64  120.34  120.00  119.64  119.23  118.80  118.32  117.81  117.43  117.22  116.99  116.76  116.32  115.53
       114.32  112.28  109.01  104.37   99.06   85.50   99.00
0 10    99.00  116.00  119.29  120.44  120.87  121.02  121.06  121.06  121.03  121.01  120.98  120.94  120.88  120.74  120.54
       120.30  120.03  119.72  119.37  118.99  118.58  118.14  117.65  117.13  116.74  116.52  116.29  116.05  115.60  114.78
       113.53  111.46  108.19  103.65   98.44   85.00   99.00
0 11    99.00  115.50  118.59  119.80  120.30  120.49  120.55  120.56  120.54  120.52  120.50  120.46  120.40  120.27  120.06
       119.81  119.52  119.20  118.85  118.46  118.04  117.59  117.09  116.55  116.16  115.93  115.70  115.46  114.99  114.16
       112.88  110.78  107.52  103.03   97.89   84.50   99.00
0 12    99.00  115.00  118.14  119.40  119.93  120.14  120.22  120.23  120.22  120.21  120.19  120.16  120.10  119.96  119.74
       119.48  119.19  118.86  118.50  118.10  117.68  117.21  116.71  116.17  115.76  115.53  115.30  115.05  114.58  113.74
       112.44  110.33  107.06  102.61   97.48   84.00   99.00
0 13    99.00  114.50  117.83  119.13  119.69  119.91  119.99  120.02  120.01  120.00  119.98  119.95  119.90  119.75  119.53
       119.26  118.96  118.62  118.26  117.86  117.42  116.96  116.45  115.90  115.49  115.26  115.02  114.77  114.29  113.44
       112.13  110.01  106.74  102.31   97.19   84.00   99.00
0 14    99.00  114.00  117.52  118.86  119.44  119.67  119.77  119.80  119.79  119.79  119.77  119.75  119.69  119.54  119.31
       119.03  118.72  118.38  118.01  117.60  117.16  116.69  116.18  115.62  115.21  114.98  114.73  114.48  114.00  113.14
       111.81  109.68  106.41  102.00   96.88   84.00   99.00
0 15    99.00  113.50  117.22  118.59  119.19  119.44  119.54  119.57  119.58  119.57  119.56  119.53  119.47  119.31  119.08
       118.80  118.48  118.14  117.76  117.34  116.90  116.42  115.90  115.34  114.92  114.68  114.44  114.18  113.69  112.82
       111.48  109.34  106.08  101.67   96.55   84.00   99.00
0 16    99.00  113.00  116.91  118.32  118.95  119.20  119.31  119.35  119.36  119.35  119.34  119.30  119.23  119.08  118.84
       118.56  118.23  117.88  117.50  117.08  116.62  116.14  115.62  115.04  114.62  114.38  114.13  113.87  113.37  112.49
       111.14  108.98  105.73  101.34   96.20   84.00   99.00
0 17    99.00  112.50  116.61  118.06  118.70  118.97  119.08  119.13  119.13  119.13  119.10  119.07  118.99  118.82  118.58
       118.29  117.97  117.61  117.22  116.79  116.33  115.85  115.32  114.74  114.31  114.06  113.81  113.55  113.04  112.15
       110.78  108.61  105.36  100.99   95.82   84.00   99.00
0 18    99.00  112.00  116.31  117.79  118.46  118.73  118.85  118.89  118.90  118.89  118.86  118.82  118.73  118.56  118.31
       118.02  117.69  117.33  116.93  116.49  116.04  115.55  115.02  114.43  113.99  113.74  113.48  113.21  112.70  111.78
       110.40  108.21  104.99  100.62   95.41   84.00   99.00
0 19    99.00  111.50  116.02  117.53  118.21  118.49  118.61  118.65  118.65  118.64  118.60  118.55  118.46  118.29  118.04
       117.75  117.41  117.04  116.63  116.18  115.74  115.25  114.70  114.10  113.65  113.40  113.13  112.86  112.33  111.40
       110.00  107.80  104.60  100.24   94.98   84.00   99.00
0 20    99.00  111.30  115.72  117.27  117.96  118.25  118.37  118.41  118.40  118.38  118.34  118.29  118.19  118.01  117.76
       117.46  117.12  116.75  116.34  115.88  115.43  114.93  114.38  113.76  113.31  113.04  112.77  112.49  111.95  111.00
       109.57  107.36  104.19   99.85   94.51   84.00   99.00
0 21    99.00  111.00  115.43  117.01  117.72  118.01  118.14  118.17  118.15  118.13  118.08  118.03  117.93  117.73  117.47
       117.18  116.83  116.46  116.04  115.58  115.11  114.61  114.04  113.41  112.94  112.67  112.39  112.10  111.55  110.57
       109.11  106.89  103.76   99.44   93.99   84.00   99.00
0 22    99.00  110.80  115.15  116.75  117.47  117.77  117.90  117.93  117.90  117.87  117.82  117.76  117.66  117.46  117.19
       116.89  116.54  116.17  115.74  115.28  114.80  114.28  113.70  113.05  112.56  112.29  112.00  111.70  111.12  110.11
       108.62  106.38  103.32   99.01   93.43   84.00   99.00
0 23    99.00  110.60  114.86  116.49  117.23  117.53  117.66  117.68  117.65  117.62  117.56  117.50  117.39  117.18  116.90
       116.60  116.25  115.87  115.44  114.98  114.47  113.93  113.34  112.67  112.17  111.88  111.58  111.27  110.66  109.61
       108.07  105.83  102.85   98.56   92.82   84.00   99.00
0 24    99.00  110.40  114.58  116.24  116.99  117.29  117.42  117.44  117.40  117.36  117.30  117.23  117.12  116.90  116.62
       116.31  115.96  115.58  115.14  114.67  114.15  113.59  112.97  112.28  111.75  111.45  111.13  110.81  110.17  109.06
       107.47  105.22  102.36   98.08   92.13   84.00   99.00
0 25    99.00  109.00  114.29  115.99  116.74  117.05  117.17  117.19  117.16  117.10  117.03  116.96  116.84  116.62  116.34
       116.02  115.67  115.28  114.84  114.36  113.82  113.23  112.59  111.87  111.32  111.00  110.66  110.32  109.64  108.46
       106.79  104.53  101.84   97.59   91.36   84.00   99.00
0 26    99.00  108.00  113.88  115.61  116.37  116.69  116.81  116.82  116.76  116.70  116.63  116.55  116.42  116.19  115.91
       115.58  115.23  114.84  114.38  113.88  113.31  112.69  111.99  111.21  110.61  110.26  109.89  109.51  108.74  107.37
       105.49  103.24  100.99   96.80   89.93   84.00   99.00
0 27    99.00  107.00  113.34  115.12  115.89  116.21  116.32  116.31  116.24  116.17  116.10  116.01  115.86  115.63  115.34
       115.01  114.65  114.24  113.77  113.23  112.62  111.95  111.17  110.27  109.58  109.16  108.71  108.25  107.32  105.72
       103.42  101.27   99.74   95.64   85.00   84.00   99.00
0 28    99.00  106.00  112.73  114.55  115.33  115.63  115.73  115.69  115.61  115.54  115.46  115.37  115.22  114.98  114.68
       114.35  113.98  113.55  113.05  112.47  111.81  111.06  110.16  109.07  108.19  107.66  107.11  106.56  105.49  103.67
       101.15   99.13   97.88   86.00   99.00   99.00   99.00
0 29    99.00  105.00  111.97  113.83  114.61  114.89  114.96  114.90  114.80  114.73  114.65  114.55  114.40  114.15  113.84
       113.50  113.10  112.65  112.12  111.49  110.78  109.91  108.82  107.37  106.19  105.58  104.90  104.24  102.99  100.88
        93.00   96.00   95.17   87.00   99.00   99.00   99.00
0 30    99.00  103.00  111.19  113.00  113.77  114.04  114.07  113.98  113.88  113.81  113.71  113.61  113.46  113.22  112.90
       112.54  112.13  111.65  111.10  110.44  109.65  108.67  107.36  105.22  102.87  100.00   99.00   97.00   96.00   94.00
        93.00   99.00   90.00   99.00   99.00   99.00   99.00
0 31    99.00  102.00  110.34  112.07  112.82  113.08  113.08  112.98  112.89  112.81  112.73  112.63  112.49  112.24  111.92
       111.56  111.15  110.66  110.08  109.40  108.57  107.54  106.10  103.86  101.79  100.00   99.00   99.00   99.00   99.00
        99.00   99.00   99.00   99.00   99.00   99.00   99.00
0 32    99.00  101.00  109.39  111.00  111.70  111.94  111.95  111.88  111.81  111.75  111.68  111.60  111.45  111.21  110.90
       110.56  110.15  109.65  109.05  108.33  107.45  106.38  104.94  102.87  101.15  100.00   99.00   99.00   99.00   99.00
        99.00   99.00   99.00   99.00   99.00   99.00   99.00
0 33    99.00  100.00  108.37  109.85  110.43  110.63  110.66  110.63  110.57  110.51  110.44  110.36  110.22  110.00  109.73
       109.41  109.00  108.48  107.84  107.08  106.17  105.14  103.88  102.02  100.00  100.00   99.00   99.00   99.00   99.00
        99.00   99.00   99.00   99.00   99.00   99.00   99.00
0 34    99.00  100.00  107.10  108.69  109.17  109.31  109.32  109.26  109.20  109.15  109.08  109.00  108.88  108.70  108.48
       108.17  107.76  107.21  106.53  105.75  104.90  104.07  103.05  101.00   99.00   99.00   99.00   99.00   99.00   99.00
        99.00   99.00   99.00   99.00   99.00   99.00   99.00
0 35    99.00   99.00  100.00  107.44  107.83  107.84  107.77  107.71  107.65  107.61  107.57  107.52  107.43  107.30  107.15
       106.91  106.50  105.93  105.03  103.00  102.00  102.00  102.00   99.00   99.00   99.00   99.00   99.00   99.00   99.00
        99.00   99.00   99.00   99.00   99.00   99.00   99.00
0 36    99.00   99.00  100.00  105.96  106.07  105.49  104.00  104.00  104.00  104.00  104.00  104.00  104.00  104.00  105.00
       105.00  104.00  104.00  103.00   99.00   99.00   99.00   99.00   99.00   99.00   99.00   99.00   99.00   99.00   99.00
        99.00   99.00   99.00   99.00   99.00   99.00   99.00
0 37    99.00   99.00  100.00  104.25  104.15  103.00   99.00   99.00   99.00   99.00   99.00   99.00   99.00   99.00   99.00
        99.00   99.00   99.00   99.00   99.00   99.00   99.00   99.00   99.00   99.00   99.00   99.00   99.00   99.00   99.00
        99.00   99.00   99.00   99.00   99.00   99.00   99.00
0 38    99.00   99.00  100.00  101.00  102.00   99.00   99.00   99.00   99.00   99.00   99.00   99.00   99.00   99.00   99.00
        99.00   99.00   99.00   99.00   99.00   99.00   99.00   99.00   99.00   99.00   99.00   99.00   99.00   99.00   99.00
        99.00   99.00   99.00   99.00   99.00   99.00   99.00
0 39    99.00   99.00   99.00   99.00   99.00   99.00   99.00   99.00   99.00   99.00   99.00   99.00   99.00   99.00   99.00
        99.00   99.00   99.00   99.00   99.00   99.00   99.00   99.00   99.00   99.00   99.00   99.00   99.00   99.00   99.00
        99.00   99.00   99.00   99.00   99.00   99.00   99.00
0


                              VOLUMETRIC BUDGET FOR ENTIRE MODEL AT END OF TIME STEP 20 IN STRESS PERIOD  1
                              -----------------------------------------------------------------------------
0                   CUMULATIVE VOLUMES      L**3                                     RATES FOR THIS TIME STEP      L**3/T
                    ------------------                                               ------------------------

                          IN:                                                                    IN:
                          ---                                                                    ---
                            STORAGE =    .83450E+06                                                STORAGE =    .98226E-05
                      CONSTANT HEAD =    .30020E+08                                          CONSTANT HEAD =    .30945E-01
                           RECHARGE =    .68924E+09                                               RECHARGE =    .70909    
0                          TOTAL IN =    .72009E+09                                               TOTAL IN =    .74005    
0                        OUT:                                                                   OUT:
                         ----                                                                   ----
                            STORAGE =    2067.0                                                    STORAGE =    .00000    
                      CONSTANT HEAD =    .72279E+09                                          CONSTANT HEAD =    .74274    
                           RECHARGE =    .00000                                                   RECHARGE =    .00000    
0                         TOTAL OUT =    .72280E+09                                              TOTAL OUT =    .74274    
0                          IN - OUT =   -.27055E+07                                               IN - OUT =   -.26966E-02
0               PERCENT DISCREPANCY =                -.38                              PERCENT DISCREPANCY =                -.36



0


          TIME SUMMARY AT END OF TIME STEP 20 IN STRESS PERIOD  1
                               SECONDS        MINUTES         HOURS          DAYS           YEARS
                           ---------------------------------------------------------------------------
      TIME STEP LENGTH         .324097E+09    .540162E+07    90027.1        3751.13        10.2700    
    STRESS PERIOD TIME         .972000E+09    .162000E+08    270000.        11250.0        30.8008    
 TOTAL SIMULATION TIME         .972000E+09    .162000E+08    270000.        11250.0        30.8008    
1
