1                    U.S. GEOLOGICAL SURVEY MODULAR FINITE-DIFFERENCE GROUND-WATER MODEL
0ARTESIAN/WATER-TABLE CONVERSION PROBLEM  MOENCH PRICKETT 1972                   1/14/91   PFA                                   
    1 LAYERS        26 ROWS        26 COLUMNS
   1 STRESS PERIOD(S) IN SIMULATION
 MODEL TIME UNIT IS DAYS
0I/O UNITS:
 ELEMENT OF IUNIT:  1  2  3  4  5  6  7  8  9 10 11 12 13 14 15 16 17 18 19 20 21 22 23 24
         I/O UNIT: 11 12  0  0  0  0  0  0 19  0  0 22  0  0  0  0  0  0  0  0  0  0  0  0
0BAS1 -- BASIC MODEL PACKAGE, VERSION 1, 9/1/87 INPUT READ FROM UNIT  1
 ARRAYS RHS AND BUFF WILL SHARE MEMORY.
 START HEAD WILL BE SAVED
     6140 ELEMENTS IN X ARRAY ARE USED BY BAS
     6140 ELEMENTS OF X ARRAY USED OUT OF   80000
0BCF1 -- BLOCK-CENTERED FLOW PACKAGE, VERSION 1, 9/1/87 INPUT READ FROM UNIT 11
 TRANSIENT SIMULATION
      LAYER  AQUIFER TYPE
      -------------------
         1         2
     2029 ELEMENTS IN X ARRAY ARE USED BY BCF
     8169 ELEMENTS OF X ARRAY USED OUT OF   80000
0WEL1 -- WELL PACKAGE, VERSION 1, 9/1/87 INPUT READ FROM 12
 MAXIMUM OF    1 WELLS
        4 ELEMENTS IN X ARRAY ARE USED FOR WELLS
     8173 ELEMENTS OF X ARRAY USED OUT OF   80000
0SIP1 -- STRONGLY IMPLICIT PROCEDURE SOLUTION PACKAGE, VERSION 1, 9/1/87 INPUT READ FROM UNIT 19
 MAXIMUM OF  50 ITERATIONS ALLOWED FOR CLOSURE
  5 ITERATION PARAMETERS
     2909 ELEMENTS IN X ARRAY ARE USED BY SIP
    11082 ELEMENTS OF X ARRAY USED OUT OF   80000
1ARTESIAN/WATER-TABLE CONVERSION PROBLEM  MOENCH PRICKETT 1972                   1/14/91   PFA                                   
0                                                              BOUNDARY ARRAY =              1 FOR LAYER  1
0AQUIFER HEAD WILL BE SET TO  999.00     AT ALL NO-FLOW NODES (IBOUND=0).
0                                                                INITIAL HEAD =   .0000000     FOR LAYER  1
0HEAD PRINT FORMAT IS FORMAT NUMBER  -9    DRAWDOWN PRINT FORMAT IS FORMAT NUMBER  -9
0HEADS WILL BE SAVED ON UNIT  0    DRAWDOWNS WILL BE SAVED ON UNIT 30
0OUTPUT CONTROL IS SPECIFIED EVERY TIME STEP
0                                                    COLUMN TO ROW ANISOTROPY =   1.000000    
0


                                                  DELR WILL BE READ ON UNIT 11 USING FORMAT: (7G11.4)            
                              -------------------------------------------------------------------------------

   10.000       15.000       20.000       30.000       50.000       70.000       100.00       150.00       200.00       220.00    
   280.00       300.00       400.00       600.00       800.00       1000.0       1500.0       2000.0       3000.0       4000.0    
   6000.0       8000.0       10000.       15000.       20000.       30000.    
0


                                                  DELC WILL BE READ ON UNIT 11 USING FORMAT: (7G11.4)            
                              -------------------------------------------------------------------------------

   10.000       15.000       20.000       30.000       50.000       70.000       100.00       150.00       200.00       220.00    
   280.00       300.00       400.00       600.00       800.00       1000.0       1500.0       2000.0       3000.0       4000.0    
   6000.0       8000.0       10000.       15000.       20000.       30000.    
0                                                        PRIMARY STORAGE COEF =   .1000000E-03 FOR LAYER  1
0                                                        TRANSMIS. ALONG ROWS =   2674.000     FOR LAYER  1
0                                                      SECONDARY STORAGE COEF =   .1000000     FOR LAYER  1
0                                                                         TOP =  -1.000000     FOR LAYER  1
0


                                                         SOLUTION BY THE STRONGLY IMPLICIT PROCEDURE
                                                         -------------------------------------------
0                                               MAXIMUM ITERATIONS ALLOWED FOR CLOSURE =       50
                                                                ACCELERATION PARAMETER =     1.0000    
                                                     HEAD CHANGE CRITERION FOR CLOSURE =     .10000E-02
                                                     SIP HEAD CHANGE PRINTOUT INTERVAL =        1
0                                                    CALCULATE ITERATION PARAMETERS FROM MODEL CALCULATED WSEED
1                                                   STRESS PERIOD NO.   1, LENGTH =   100.0000    
                                                    ----------------------------------------------

                                                    NUMBER OF TIME STEPS =    25

                                                     MULTIPLIER FOR DELT =     1.414

                                                  INITIAL TIME STEP SIZE =   .7175301E-02
0             1 WELLS
                                                LAYER    ROW    COL    STRESS RATE   WELL NO.
                                                ---------------------------------------------
                                                  1       1      1     -8409.1           1
0AVERAGE SEED =  .00048794
 MINIMUM SEED =  .00000000
0
    5 ITERATION PARAMETERS CALCULATED FROM AVERAGE SEED:

             .0000000E+00   .8513747E+00   .9779105E+00   .9967170E+00   .9995121E+00
0
    13 ITERATIONS FOR TIME STEP   1 IN STRESS PERIOD  1
0MAXIMUM HEAD CHANGE FOR EACH ITERATION:
0 HEAD CHANGE LAYER,ROW,COL HEAD CHANGE LAYER,ROW,COL HEAD CHANGE LAYER,ROW,COL HEAD CHANGE LAYER,ROW,COL HEAD CHANGE LAYER,ROW,COL
 ------------------------------------------------------------------------------------------------------------------------------------
   -3.304     (  1,  1,  1)  -.5677     (  1,  1,  3)  -.2800     (  1,  4,  5)  -.1731     (  1,  3,  3)   .1004     (  1,  3,  1)
    .2682E-01 (  1,  3,  3)  -.1664E-01 (  1,  6,  2)  -.2137E-01 (  1,  4,  5)  -.6417E-02 (  1,  8,  1)  -.5162E-02 (  1,  5,  4)
    .2218E-02 (  1,  3,  2)   .1418E-02 (  1,  4,  3)   .8279E-03 (  1,  3,  6)
0
0HEAD/DRAWDOWN PRINTOUT FLAG = 1     TOTAL BUDGET PRINTOUT FLAG = 1     CELL-BY-CELL FLOW TERM FLAG = 0
0OUTPUT FLAGS FOR ALL LAYERS ARE THE SAME:
   HEAD    DRAWDOWN  HEAD  DRAWDOWN
 PRINTOUT  PRINTOUT  SAVE    SAVE
 ----------------------------------
     0         1       0       0
1                  DRAWDOWN IN LAYER  1 AT END OF TIME STEP  1 IN STRESS PERIOD  1
           -----------------------------------------------------------------------

         1     2     3     4     5     6     7     8     9    10    11    12    13    14    15    16    17    18    19    20
 ................................................................................................................................
0  1   2.91  1.57  1.09   .87   .66   .49   .34   .21   .12   .07   .03   .02   .01   .00   .00   .00   .00   .00   .00   .00
0  2   1.57  1.27  1.04   .85   .66   .49   .34   .21   .12   .07   .03   .02   .01   .00   .00   .00   .00   .00   .00   .00
0  3   1.09  1.04   .94   .81   .64   .48   .34   .21   .12   .07   .03   .02   .01   .00   .00   .00   .00   .00   .00   .00
0  4    .87   .85   .81   .73   .61   .46   .33   .21   .12   .06   .03   .02   .01   .00   .00   .00   .00   .00   .00   .00
0  5    .66   .66   .64   .61   .53   .43   .32   .20   .12   .06   .03   .01   .01   .00   .00   .00   .00   .00   .00   .00
0  6    .49   .49   .48   .46   .43   .37   .28   .19   .11   .06   .03   .01   .01   .00   .00   .00   .00   .00   .00   .00
0  7    .34   .34   .34   .33   .32   .28   .23   .17   .10   .06   .03   .01   .01   .00   .00   .00   .00   .00   .00   .00
0  8    .21   .21   .21   .21   .20   .19   .17   .13   .09   .05   .03   .01   .01   .00   .00   .00   .00   .00   .00   .00
0  9    .12   .12   .12   .12   .12   .11   .10   .09   .06   .04   .02   .01   .00   .00   .00   .00   .00   .00   .00   .00
0 10    .07   .07   .07   .06   .06   .06   .06   .05   .04   .03   .02   .01   .00   .00   .00   .00   .00   .00   .00   .00
0 11    .03   .03   .03   .03   .03   .03   .03   .03   .02   .02   .01   .01   .00   .00   .00   .00   .00   .00   .00   .00
0 12    .02   .02   .02   .02   .01   .01   .01   .01   .01   .01   .01   .00   .00   .00   .00   .00   .00   .00   .00   .00
0 13    .01   .01   .01   .01   .01   .01   .01   .01   .00   .00   .00   .00   .00   .00   .00   .00   .00   .00   .00   .00
0 14    .00   .00   .00   .00   .00   .00   .00   .00   .00   .00   .00   .00   .00   .00   .00   .00   .00   .00   .00   .00
0 15    .00   .00   .00   .00   .00   .00   .00   .00   .00   .00   .00   .00   .00   .00   .00   .00   .00   .00   .00   .00
0 16    .00   .00   .00   .00   .00   .00   .00   .00   .00   .00   .00   .00   .00   .00   .00   .00   .00   .00   .00   .00
0 17    .00   .00   .00   .00   .00   .00   .00   .00   .00   .00   .00   .00   .00   .00   .00   .00   .00   .00   .00   .00
0 18    .00   .00   .00   .00   .00   .00   .00   .00   .00   .00   .00   .00   .00   .00   .00   .00   .00   .00   .00   .00
0 19    .00   .00   .00   .00   .00   .00   .00   .00   .00   .00   .00   .00   .00   .00   .00   .00   .00   .00   .00   .00
0 20    .00   .00   .00   .00   .00   .00   .00   .00   .00   .00   .00   .00   .00   .00   .00   .00   .00   .00   .00   .00
0 21    .00   .00   .00   .00   .00   .00   .00   .00   .00   .00   .00   .00   .00   .00   .00   .00   .00   .00   .00   .00
0 22    .00   .00   .00   .00   .00   .00   .00   .00   .00   .00   .00   .00   .00   .00   .00   .00   .00   .00   .00   .00
0 23    .00   .00   .00   .00   .00   .00   .00   .00   .00   .00   .00   .00   .00   .00   .00   .00   .00   .00   .00   .00
0 24    .00   .00   .00   .00   .00   .00   .00   .00   .00   .00   .00   .00   .00   .00   .00   .00   .00   .00   .00   .00
0 25    .00   .00   .00   .00   .00   .00   .00   .00   .00   .00   .00   .00   .00   .00   .00   .00   .00   .00   .00   .00
0 26    .00   .00   .00   .00   .00   .00   .00   .00   .00   .00   .00   .00   .00   .00   .00   .00   .00   .00   .00   .00
1                  DRAWDOWN IN LAYER  1 AT END OF TIME STEP  1 IN STRESS PERIOD  1
           -----------------------------------------------------------------------

        21    22    23    24    25    26
 ............................................
0  1    .00   .00   .00   .00   .00   .00
0  2    .00   .00   .00   .00   .00   .00
0  3    .00   .00   .00   .00   .00   .00
0  4    .00   .00   .00   .00   .00   .00
0  5    .00   .00   .00   .00   .00   .00
0  6    .00   .00   .00   .00   .00   .00
0  7    .00   .00   .00   .00   .00   .00
0  8    .00   .00   .00   .00   .00   .00
0  9    .00   .00   .00   .00   .00   .00
0 10    .00   .00   .00   .00   .00   .00
0 11    .00   .00   .00   .00   .00   .00
0 12    .00   .00   .00   .00   .00   .00
0 13    .00   .00   .00   .00   .00   .00
0 14    .00   .00   .00   .00   .00   .00
0 15    .00   .00   .00   .00   .00   .00
0 16    .00   .00   .00   .00   .00   .00
0 17    .00   .00   .00   .00   .00   .00
0 18    .00   .00   .00   .00   .00   .00
0 19    .00   .00   .00   .00   .00   .00
0 20    .00   .00   .00   .00   .00   .00
0 21    .00   .00   .00   .00   .00   .00
0 22    .00   .00   .00   .00   .00   .00
0 23    .00   .00   .00   .00   .00   .00
0 24    .00   .00   .00   .00   .00   .00
0 25    .00   .00   .00   .00   .00   .00
0 26    .00   .00   .00   .00   .00   .00
0


                              VOLUMETRIC BUDGET FOR ENTIRE MODEL AT END OF TIME STEP  1 IN STRESS PERIOD  1
                              -----------------------------------------------------------------------------
0                   CUMULATIVE VOLUMES      L**3                                     RATES FOR THIS TIME STEP      L**3/T
                    ------------------                                               ------------------------

                          IN:                                                                    IN:
                          ---                                                                    ---
                            STORAGE =    60.346                                                    STORAGE =    8410.2    
                      CONSTANT HEAD =    .00000                                              CONSTANT HEAD =    .00000    
                              WELLS =    .00000                                                      WELLS =    .00000    
0                          TOTAL IN =    60.346                                                   TOTAL IN =    8410.2    
0                        OUT:                                                                   OUT:
                         ----                                                                   ----
                            STORAGE =    .00000                                                    STORAGE =    .00000    
                      CONSTANT HEAD =    .00000                                              CONSTANT HEAD =    .00000    
                              WELLS =    60.338                                                      WELLS =    8409.1    
0                         TOTAL OUT =    60.338                                                  TOTAL OUT =    8409.1    
0                          IN - OUT =    .82436E-02                                               IN - OUT =    1.1494    
0               PERCENT DISCREPANCY =                 .01                              PERCENT DISCREPANCY =                 .01



0


          TIME SUMMARY AT END OF TIME STEP  1 IN STRESS PERIOD  1
                               SECONDS        MINUTES         HOURS          DAYS           YEARS
                           ---------------------------------------------------------------------------
      TIME STEP LENGTH         619.946        10.3324        .172207        .717530E-02    .196449E-04
    STRESS PERIOD TIME         619.946        10.3324        .172207        .717530E-02    .196449E-04
 TOTAL SIMULATION TIME         619.946        10.3324        .172207        .717530E-02    .196449E-04
1
     9 ITERATIONS FOR TIME STEP   2 IN STRESS PERIOD  1
0MAXIMUM HEAD CHANGE FOR EACH ITERATION:
0 HEAD CHANGE LAYER,ROW,COL HEAD CHANGE LAYER,ROW,COL HEAD CHANGE LAYER,ROW,COL HEAD CHANGE LAYER,ROW,COL HEAD CHANGE LAYER,ROW,COL
 ------------------------------------------------------------------------------------------------------------------------------------
   -.8931     (  1,  1,  1)  -.1272     (  1,  1,  2)  -.7803E-01 (  1,  6,  3)  -.4917E-01 (  1,  4,  5)   .2493E-01 (  1,  4,  2)
    .1036E-01 (  1,  3,  4)  -.2521E-02 (  1,  8,  4)  -.2856E-02 (  1,  6,  6)  -.6961E-03 (  1, 10,  1)
0
0HEAD/DRAWDOWN PRINTOUT FLAG = 1     TOTAL BUDGET PRINTOUT FLAG = 1     CELL-BY-CELL FLOW TERM FLAG = 0
0OUTPUT FLAGS FOR ALL LAYERS ARE THE SAME:
   HEAD    DRAWDOWN  HEAD  DRAWDOWN
 PRINTOUT  PRINTOUT  SAVE    SAVE
 ----------------------------------
     0         1       0       0
1                  DRAWDOWN IN LAYER  1 AT END OF TIME STEP  2 IN STRESS PERIOD  1
           -----------------------------------------------------------------------

         1     2     3     4     5     6     7     8     9    10    11    12    13    14    15    16    17    18    19    20
 ................................................................................................................................
0  1   3.92  2.18  1.35  1.04   .84   .66   .51   .36   .24   .15   .09   .05   .03   .01   .00   .00   .00   .00   .00   .00
0  2   2.18  1.71  1.25  1.02   .83   .66   .51   .36   .24   .15   .09   .05   .03   .01   .00   .00   .00   .00   .00   .00
0  3   1.35  1.25  1.10   .98   .82   .65   .50   .36   .24   .15   .09   .05   .03   .01   .00   .00   .00   .00   .00   .00
0  4   1.04  1.02   .98   .90   .78   .64   .50   .36   .24   .15   .09   .05   .03   .01   .00   .00   .00   .00   .00   .00
0  5    .84   .83   .82   .78   .71   .60   .48   .35   .23   .15   .09   .05   .02   .01   .00   .00   .00   .00   .00   .00
0  6    .66   .66   .65   .64   .60   .54   .44   .33   .23   .15   .09   .05   .02   .01   .00   .00   .00   .00   .00   .00
0  7    .51   .51   .50   .50   .48   .44   .39   .30   .21   .14   .08   .05   .02   .01   .00   .00   .00   .00   .00   .00
0  8    .36   .36   .36   .36   .35   .33   .30   .25   .19   .13   .08   .05   .02   .01   .00   .00   .00   .00   .00   .00
0  9    .24   .24   .24   .24   .23   .23   .21   .19   .15   .10   .07   .04   .02   .01   .00   .00   .00   .00   .00   .00
0 10    .15   .15   .15   .15   .15   .15   .14   .13   .10   .08   .05   .03   .02   .01   .00   .00   .00   .00   .00   .00
0 11    .09   .09   .09   .09   .09   .09   .08   .08   .07   .05   .04   .03   .01   .01   .00   .00   .00   .00   .00   .00
0 12    .05   .05   .05   .05   .05   .05   .05   .05   .04   .03   .03   .02   .01   .00   .00   .00   .00   .00   .00   .00
0 13    .03   .03   .03   .03   .03   .02   .02   .02   .02   .02   .01   .01   .01   .00   .00   .00   .00   .00   .00   .00
0 14    .01   .01   .01   .01   .01   .01   .01   .01   .01   .01   .01   .00   .00   .00   .00   .00   .00   .00   .00   .00
0 15    .00   .00   .00   .00   .00   .00   .00   .00   .00   .00   .00   .00   .00   .00   .00   .00   .00   .00   .00   .00
0 16    .00   .00   .00   .00   .00   .00   .00   .00   .00   .00   .00   .00   .00   .00   .00   .00   .00   .00   .00   .00
0 17    .00   .00   .00   .00   .00   .00   .00   .00   .00   .00   .00   .00   .00   .00   .00   .00   .00   .00   .00   .00
0 18    .00   .00   .00   .00   .00   .00   .00   .00   .00   .00   .00   .00   .00   .00   .00   .00   .00   .00   .00   .00
0 19    .00   .00   .00   .00   .00   .00   .00   .00   .00   .00   .00   .00   .00   .00   .00   .00   .00   .00   .00   .00
0 20    .00   .00   .00   .00   .00   .00   .00   .00   .00   .00   .00   .00   .00   .00   .00   .00   .00   .00   .00   .00
0 21    .00   .00   .00   .00   .00   .00   .00   .00   .00   .00   .00   .00   .00   .00   .00   .00   .00   .00   .00   .00
0 22    .00   .00   .00   .00   .00   .00   .00   .00   .00   .00   .00   .00   .00   .00   .00   .00   .00   .00   .00   .00
0 23    .00   .00   .00   .00   .00   .00   .00   .00   .00   .00   .00   .00   .00   .00   .00   .00   .00   .00   .00   .00
0 24    .00   .00   .00   .00   .00   .00   .00   .00   .00   .00   .00   .00   .00   .00   .00   .00   .00   .00   .00   .00
0 25    .00   .00   .00   .00   .00   .00   .00   .00   .00   .00   .00   .00   .00   .00   .00   .00   .00   .00   .00   .00
0 26    .00   .00   .00   .00   .00   .00   .00   .00   .00   .00   .00   .00   .00   .00   .00   .00   .00   .00   .00   .00
1                  DRAWDOWN IN LAYER  1 AT END OF TIME STEP  2 IN STRESS PERIOD  1
           -----------------------------------------------------------------------

        21    22    23    24    25    26
 ............................................
0  1    .00   .00   .00   .00   .00   .00
0  2    .00   .00   .00   .00   .00   .00
0  3    .00   .00   .00   .00   .00   .00
0  4    .00   .00   .00   .00   .00   .00
0  5    .00   .00   .00   .00   .00   .00
0  6    .00   .00   .00   .00   .00   .00
0  7    .00   .00   .00   .00   .00   .00
0  8    .00   .00   .00   .00   .00   .00
0  9    .00   .00   .00   .00   .00   .00
0 10    .00   .00   .00   .00   .00   .00
0 11    .00   .00   .00   .00   .00   .00
0 12    .00   .00   .00   .00   .00   .00
0 13    .00   .00   .00   .00   .00   .00
0 14    .00   .00   .00   .00   .00   .00
0 15    .00   .00   .00   .00   .00   .00
0 16    .00   .00   .00   .00   .00   .00
0 17    .00   .00   .00   .00   .00   .00
0 18    .00   .00   .00   .00   .00   .00
0 19    .00   .00   .00   .00   .00   .00
0 20    .00   .00   .00   .00   .00   .00
0 21    .00   .00   .00   .00   .00   .00
0 22    .00   .00   .00   .00   .00   .00
0 23    .00   .00   .00   .00   .00   .00
0 24    .00   .00   .00   .00   .00   .00
0 25    .00   .00   .00   .00   .00   .00
0 26    .00   .00   .00   .00   .00   .00
0


                              VOLUMETRIC BUDGET FOR ENTIRE MODEL AT END OF TIME STEP  2 IN STRESS PERIOD  1
                              -----------------------------------------------------------------------------
0                   CUMULATIVE VOLUMES      L**3                                     RATES FOR THIS TIME STEP      L**3/T
                    ------------------                                               ------------------------

                          IN:                                                                    IN:
                          ---                                                                    ---
                            STORAGE =    145.66                                                    STORAGE =    8409.2    
                      CONSTANT HEAD =    .00000                                              CONSTANT HEAD =    .00000    
                              WELLS =    .00000                                                      WELLS =    .00000    
0                          TOTAL IN =    145.66                                                   TOTAL IN =    8409.2    
0                        OUT:                                                                   OUT:
                         ----                                                                   ----
                            STORAGE =    .00000                                                    STORAGE =    .00000    
                      CONSTANT HEAD =    .00000                                              CONSTANT HEAD =    .00000    
                              WELLS =    145.66                                                      WELLS =    8409.1    
0                         TOTAL OUT =    145.66                                                  TOTAL OUT =    8409.1    
0                          IN - OUT =    .93231E-02                                               IN - OUT =    .10645    
0               PERCENT DISCREPANCY =                 .01                              PERCENT DISCREPANCY =                 .00



0


          TIME SUMMARY AT END OF TIME STEP  2 IN STRESS PERIOD  1
                               SECONDS        MINUTES         HOURS          DAYS           YEARS
                           ---------------------------------------------------------------------------
      TIME STEP LENGTH         876.604        14.6101        .243501        .101459E-01    .277779E-04
    STRESS PERIOD TIME         1496.55        24.9425        .415708        .173212E-01    .474228E-04
 TOTAL SIMULATION TIME         1496.55        24.9425        .415708        .173212E-01    .474228E-04
1
    10 ITERATIONS FOR TIME STEP   3 IN STRESS PERIOD  1
0MAXIMUM HEAD CHANGE FOR EACH ITERATION:
0 HEAD CHANGE LAYER,ROW,COL HEAD CHANGE LAYER,ROW,COL HEAD CHANGE LAYER,ROW,COL HEAD CHANGE LAYER,ROW,COL HEAD CHANGE LAYER,ROW,COL
 ------------------------------------------------------------------------------------------------------------------------------------
   -.5323     (  1,  1,  1)  -.1479     (  1,  1,  2)  -.5016E-01 (  1,  3,  7)  -.3615E-01 (  1,  5,  5)   .1974E-01 (  1,  4,  4)
   -.1676E-02 (  1,  7,  6)  -.2235E-02 (  1,  8,  6)  -.2690E-02 (  1,  6,  6)  -.1049E-02 (  1, 10,  1)  -.4720E-03 (  1,  6,  6)
0
0HEAD/DRAWDOWN PRINTOUT FLAG = 1     TOTAL BUDGET PRINTOUT FLAG = 0     CELL-BY-CELL FLOW TERM FLAG = 0
 REUSING PREVIOUS VALUES OF IOFLG
1                  DRAWDOWN IN LAYER  1 AT END OF TIME STEP  3 IN STRESS PERIOD  1
           -----------------------------------------------------------------------

         1     2     3     4     5     6     7     8     9    10    11    12    13    14    15    16    17    18    19    20
 ................................................................................................................................
0  1   4.59  2.73  1.68  1.16   .95   .77   .62   .47   .34   .24   .16   .10   .06   .03   .01   .00   .00   .00   .00   .00
0  2   2.73  2.17  1.54  1.13   .94   .77   .62   .47   .34   .24   .16   .10   .06   .03   .01   .00   .00   .00   .00   .00
0  3   1.68  1.54  1.30  1.07   .92   .76   .61   .47   .34   .23   .16   .10   .06   .03   .01   .00   .00   .00   .00   .00
0  4   1.16  1.13  1.07  1.00   .89   .75   .61   .46   .33   .23   .16   .10   .06   .03   .01   .00   .00   .00   .00   .00
0  5    .95   .94   .92   .89   .82   .71   .59   .46   .33   .23   .16   .10   .06   .03   .01   .00   .00   .00   .00   .00
0  6    .77   .77   .76   .75   .71   .65   .55   .44   .32   .23   .15   .10   .06   .03   .01   .00   .00   .00   .00   .00
0  7    .62   .62   .61   .61   .59   .55   .49   .41   .31   .22   .15   .10   .06   .03   .01   .00   .00   .00   .00   .00
0  8    .47   .47   .47   .46   .46   .44   .41   .35   .28   .20   .14   .09   .05   .03   .01   .00   .00   .00   .00   .00
0  9    .34   .34   .34   .33   .33   .32   .31   .28   .23   .18   .13   .08   .05   .02   .01   .00   .00   .00   .00   .00
0 10    .24   .24   .24   .23   .23   .23   .22   .20   .18   .14   .11   .07   .04   .02   .01   .00   .00   .00   .00   .00
0 11    .16   .16   .16   .16   .16   .15   .15   .14   .13   .11   .08   .06   .04   .02   .01   .00   .00   .00   .00   .00
0 12    .10   .10   .10   .10   .10   .10   .10   .09   .08   .07   .06   .04   .03   .01   .01   .00   .00   .00   .00   .00
0 13    .06   .06   .06   .06   .06   .06   .06   .05   .05   .04   .04   .03   .02   .01   .00   .00   .00   .00   .00   .00
0 14    .03   .03   .03   .03   .03   .03   .03   .03   .02   .02   .02   .01   .01   .01   .00   .00   .00   .00   .00   .00
0 15    .01   .01   .01   .01   .01   .01   .01   .01   .01   .01   .01   .01   .00   .00   .00   .00   .00   .00   .00   .00
0 16    .00   .00   .00   .00   .00   .00   .00   .00   .00   .00   .00   .00   .00   .00   .00   .00   .00   .00   .00   .00
0 17    .00   .00   .00   .00   .00   .00   .00   .00   .00   .00   .00   .00   .00   .00   .00   .00   .00   .00   .00   .00
0 18    .00   .00   .00   .00   .00   .00   .00   .00   .00   .00   .00   .00   .00   .00   .00   .00   .00   .00   .00   .00
0 19    .00   .00   .00   .00   .00   .00   .00   .00   .00   .00   .00   .00   .00   .00   .00   .00   .00   .00   .00   .00
0 20    .00   .00   .00   .00   .00   .00   .00   .00   .00   .00   .00   .00   .00   .00   .00   .00   .00   .00   .00   .00
0 21    .00   .00   .00   .00   .00   .00   .00   .00   .00   .00   .00   .00   .00   .00   .00   .00   .00   .00   .00   .00
0 22    .00   .00   .00   .00   .00   .00   .00   .00   .00   .00   .00   .00   .00   .00   .00   .00   .00   .00   .00   .00
0 23    .00   .00   .00   .00   .00   .00   .00   .00   .00   .00   .00   .00   .00   .00   .00   .00   .00   .00   .00   .00
0 24    .00   .00   .00   .00   .00   .00   .00   .00   .00   .00   .00   .00   .00   .00   .00   .00   .00   .00   .00   .00
0 25    .00   .00   .00   .00   .00   .00   .00   .00   .00   .00   .00   .00   .00   .00   .00   .00   .00   .00   .00   .00
0 26    .00   .00   .00   .00   .00   .00   .00   .00   .00   .00   .00   .00   .00   .00   .00   .00   .00   .00   .00   .00
1                  DRAWDOWN IN LAYER  1 AT END OF TIME STEP  3 IN STRESS PERIOD  1
           -----------------------------------------------------------------------

        21    22    23    24    25    26
 ............................................
0  1    .00   .00   .00   .00   .00   .00
0  2    .00   .00   .00   .00   .00   .00
0  3    .00   .00   .00   .00   .00   .00
0  4    .00   .00   .00   .00   .00   .00
0  5    .00   .00   .00   .00   .00   .00
0  6    .00   .00   .00   .00   .00   .00
0  7    .00   .00   .00   .00   .00   .00
0  8    .00   .00   .00   .00   .00   .00
0  9    .00   .00   .00   .00   .00   .00
0 10    .00   .00   .00   .00   .00   .00
0 11    .00   .00   .00   .00   .00   .00
0 12    .00   .00   .00   .00   .00   .00
0 13    .00   .00   .00   .00   .00   .00
0 14    .00   .00   .00   .00   .00   .00
0 15    .00   .00   .00   .00   .00   .00
0 16    .00   .00   .00   .00   .00   .00
0 17    .00   .00   .00   .00   .00   .00
0 18    .00   .00   .00   .00   .00   .00
0 19    .00   .00   .00   .00   .00   .00
0 20    .00   .00   .00   .00   .00   .00
0 21    .00   .00   .00   .00   .00   .00
0 22    .00   .00   .00   .00   .00   .00
0 23    .00   .00   .00   .00   .00   .00
0 24    .00   .00   .00   .00   .00   .00
0 25    .00   .00   .00   .00   .00   .00
0 26    .00   .00   .00   .00   .00   .00
0


          TIME SUMMARY AT END OF TIME STEP  3 IN STRESS PERIOD  1
                               SECONDS        MINUTES         HOURS          DAYS           YEARS
                           ---------------------------------------------------------------------------
      TIME STEP LENGTH         1239.52        20.6586        .344310        .143463E-01    .392779E-04
    STRESS PERIOD TIME         2736.07        45.6011        .760019        .316674E-01    .867008E-04
 TOTAL SIMULATION TIME         2736.07        45.6011        .760019        .316674E-01    .867008E-04
1
     9 ITERATIONS FOR TIME STEP   4 IN STRESS PERIOD  1
0MAXIMUM HEAD CHANGE FOR EACH ITERATION:
0 HEAD CHANGE LAYER,ROW,COL HEAD CHANGE LAYER,ROW,COL HEAD CHANGE LAYER,ROW,COL HEAD CHANGE LAYER,ROW,COL HEAD CHANGE LAYER,ROW,COL
 ------------------------------------------------------------------------------------------------------------------------------------
   -.3664     (  1,  1,  1)  -.1643     (  1,  1,  2)  -.3861E-01 (  1,  4,  8)  -.3506E-01 (  1,  5,  6)   .1883E-01 (  1,  5,  5)
   -.1679E-02 (  1,  8,  7)  -.1831E-02 (  1,  8,  8)  -.2136E-02 (  1,  7,  7)  -.8394E-03 (  1, 11,  2)
0
0HEAD/DRAWDOWN PRINTOUT FLAG = 1     TOTAL BUDGET PRINTOUT FLAG = 0     CELL-BY-CELL FLOW TERM FLAG = 0
 REUSING PREVIOUS VALUES OF IOFLG
1                  DRAWDOWN IN LAYER  1 AT END OF TIME STEP  4 IN STRESS PERIOD  1
           -----------------------------------------------------------------------

         1     2     3     4     5     6     7     8     9    10    11    12    13    14    15    16    17    18    19    20
 ................................................................................................................................
0  1   5.12  3.21  2.04  1.35  1.03   .86   .70   .56   .42   .31   .22   .16   .10   .05   .02   .01   .00   .00   .00   .00
0  2   3.21  2.61  1.88  1.32  1.03   .86   .70   .56   .42   .31   .22   .16   .10   .05   .02   .01   .00   .00   .00   .00
0  3   2.04  1.88  1.56  1.22  1.01   .85   .70   .55   .42   .31   .22   .16   .10   .05   .02   .01   .00   .00   .00   .00
0  4   1.35  1.32  1.22  1.09   .98   .84   .69   .55   .42   .31   .22   .16   .10   .05   .02   .01   .00   .00   .00   .00
0  5   1.03  1.03  1.01   .98   .91   .80   .68   .54   .41   .31   .22   .16   .10   .05   .02   .01   .00   .00   .00   .00
0  6    .86   .86   .85   .84   .80   .73   .64   .53   .41   .31   .22   .15   .10   .05   .02   .01   .00   .00   .00   .00
0  7    .70   .70   .70   .69   .68   .64   .58   .49   .39   .30   .22   .15   .10   .05   .02   .01   .00   .00   .00   .00
0  8    .56   .56   .55   .55   .54   .53   .49   .44   .36   .28   .21   .15   .10   .05   .02   .01   .00   .00   .00   .00
0  9    .42   .42   .42   .42   .41   .41   .39   .36   .31   .25   .19   .14   .09   .05   .02   .01   .00   .00   .00   .00
0 10    .31   .31   .31   .31   .31   .31   .30   .28   .25   .21   .16   .12   .08   .05   .02   .01   .00   .00   .00   .00
0 11    .22   .22   .22   .22   .22   .22   .22   .21   .19   .16   .13   .10   .07   .04   .02   .01   .00   .00   .00   .00
0 12    .16   .16   .16   .16   .16   .15   .15   .15   .14   .12   .10   .08   .06   .03   .02   .01   .00   .00   .00   .00
0 13    .10   .10   .10   .10   .10   .10   .10   .10   .09   .08   .07   .06   .04   .03   .01   .00   .00   .00   .00   .00
0 14    .05   .05   .05   .05   .05   .05   .05   .05   .05   .05   .04   .03   .03   .02   .01   .00   .00   .00   .00   .00
0 15    .02   .02   .02   .02   .02   .02   .02   .02   .02   .02   .02   .02   .01   .01   .00   .00   .00   .00   .00   .00
0 16    .01   .01   .01   .01   .01   .01   .01   .01   .01   .01   .01   .01   .00   .00   .00   .00   .00   .00   .00   .00
0 17    .00   .00   .00   .00   .00   .00   .00   .00   .00   .00   .00   .00   .00   .00   .00   .00   .00   .00   .00   .00
0 18    .00   .00   .00   .00   .00   .00   .00   .00   .00   .00   .00   .00   .00   .00   .00   .00   .00   .00   .00   .00
0 19    .00   .00   .00   .00   .00   .00   .00   .00   .00   .00   .00   .00   .00   .00   .00   .00   .00   .00   .00   .00
0 20    .00   .00   .00   .00   .00   .00   .00   .00   .00   .00   .00   .00   .00   .00   .00   .00   .00   .00   .00   .00
0 21    .00   .00   .00   .00   .00   .00   .00   .00   .00   .00   .00   .00   .00   .00   .00   .00   .00   .00   .00   .00
0 22    .00   .00   .00   .00   .00   .00   .00   .00   .00   .00   .00   .00   .00   .00   .00   .00   .00   .00   .00   .00
0 23    .00   .00   .00   .00   .00   .00   .00   .00   .00   .00   .00   .00   .00   .00   .00   .00   .00   .00   .00   .00
0 24    .00   .00   .00   .00   .00   .00   .00   .00   .00   .00   .00   .00   .00   .00   .00   .00   .00   .00   .00   .00
0 25    .00   .00   .00   .00   .00   .00   .00   .00   .00   .00   .00   .00   .00   .00   .00   .00   .00   .00   .00   .00
0 26    .00   .00   .00   .00   .00   .00   .00   .00   .00   .00   .00   .00   .00   .00   .00   .00   .00   .00   .00   .00
1                  DRAWDOWN IN LAYER  1 AT END OF TIME STEP  4 IN STRESS PERIOD  1
           -----------------------------------------------------------------------

        21    22    23    24    25    26
 ............................................
0  1    .00   .00   .00   .00   .00   .00
0  2    .00   .00   .00   .00   .00   .00
0  3    .00   .00   .00   .00   .00   .00
0  4    .00   .00   .00   .00   .00   .00
0  5    .00   .00   .00   .00   .00   .00
0  6    .00   .00   .00   .00   .00   .00
0  7    .00   .00   .00   .00   .00   .00
0  8    .00   .00   .00   .00   .00   .00
0  9    .00   .00   .00   .00   .00   .00
0 10    .00   .00   .00   .00   .00   .00
0 11    .00   .00   .00   .00   .00   .00
0 12    .00   .00   .00   .00   .00   .00
0 13    .00   .00   .00   .00   .00   .00
0 14    .00   .00   .00   .00   .00   .00
0 15    .00   .00   .00   .00   .00   .00
0 16    .00   .00   .00   .00   .00   .00
0 17    .00   .00   .00   .00   .00   .00
0 18    .00   .00   .00   .00   .00   .00
0 19    .00   .00   .00   .00   .00   .00
0 20    .00   .00   .00   .00   .00   .00
0 21    .00   .00   .00   .00   .00   .00
0 22    .00   .00   .00   .00   .00   .00
0 23    .00   .00   .00   .00   .00   .00
0 24    .00   .00   .00   .00   .00   .00
0 25    .00   .00   .00   .00   .00   .00
0 26    .00   .00   .00   .00   .00   .00
0


          TIME SUMMARY AT END OF TIME STEP  4 IN STRESS PERIOD  1
                               SECONDS        MINUTES         HOURS          DAYS           YEARS
                           ---------------------------------------------------------------------------
      TIME STEP LENGTH         1752.68        29.2113        .486855        .202856E-01    .555390E-04
    STRESS PERIOD TIME         4488.75        74.8124        1.24687        .519531E-01    .142240E-03
 TOTAL SIMULATION TIME         4488.75        74.8124        1.24687        .519531E-01    .142240E-03
1
     9 ITERATIONS FOR TIME STEP   5 IN STRESS PERIOD  1
0MAXIMUM HEAD CHANGE FOR EACH ITERATION:
0 HEAD CHANGE LAYER,ROW,COL HEAD CHANGE LAYER,ROW,COL HEAD CHANGE LAYER,ROW,COL HEAD CHANGE LAYER,ROW,COL HEAD CHANGE LAYER,ROW,COL
 ------------------------------------------------------------------------------------------------------------------------------------
   -.2735     (  1,  1,  1)  -.1738     (  1,  1,  2)  -.3570E-01 (  1,  3,  8)  -.2966E-01 (  1,  6,  6)   .1526E-01 (  1,  6,  5)
   -.1365E-02 (  1,  9,  8)  -.1591E-02 (  1,  9,  9)  -.1832E-02 (  1,  8,  7)  -.8354E-03 (  1, 11,  1)
0
0HEAD/DRAWDOWN PRINTOUT FLAG = 1     TOTAL BUDGET PRINTOUT FLAG = 0     CELL-BY-CELL FLOW TERM FLAG = 0
 REUSING PREVIOUS VALUES OF IOFLG
1                  DRAWDOWN IN LAYER  1 AT END OF TIME STEP  5 IN STRESS PERIOD  1
           -----------------------------------------------------------------------

         1     2     3     4     5     6     7     8     9    10    11    12    13    14    15    16    17    18    19    20
 ................................................................................................................................
0  1   5.58  3.66  2.41  1.60  1.12   .94   .78   .63   .49   .38   .29   .22   .15   .09   .04   .02   .00   .00   .00   .00
0  2   3.66  3.03  2.23  1.55  1.11   .93   .78   .63   .49   .38   .29   .22   .15   .09   .04   .02   .00   .00   .00   .00
0  3   2.41  2.23  1.86  1.43  1.09   .93   .78   .63   .49   .38   .29   .22   .15   .09   .04   .02   .00   .00   .00   .00
0  4   1.60  1.55  1.43  1.24  1.04   .91   .77   .63   .49   .38   .29   .22   .15   .09   .04   .02   .00   .00   .00   .00
0  5   1.12  1.11  1.09  1.04   .98   .87   .75   .62   .49   .38   .29   .22   .15   .09   .04   .02   .00   .00   .00   .00
0  6    .94   .93   .93   .91   .87   .81   .72   .60   .48   .38   .29   .21   .15   .09   .04   .02   .00   .00   .00   .00
0  7    .78   .78   .78   .77   .75   .72   .66   .57   .46   .37   .28   .21   .15   .09   .04   .02   .00   .00   .00   .00
0  8    .63   .63   .63   .63   .62   .60   .57   .51   .43   .35   .27   .20   .15   .09   .04   .02   .00   .00   .00   .00
0  9    .49   .49   .49   .49   .49   .48   .46   .43   .38   .32   .25   .19   .14   .09   .04   .02   .00   .00   .00   .00
0 10    .38   .38   .38   .38   .38   .38   .37   .35   .32   .27   .22   .18   .13   .08   .04   .02   .00   .00   .00   .00
0 11    .29   .29   .29   .29   .29   .29   .28   .27   .25   .22   .19   .15   .11   .07   .04   .02   .00   .00   .00   .00
0 12    .22   .22   .22   .22   .22   .21   .21   .20   .19   .18   .15   .13   .10   .06   .03   .01   .00   .00   .00   .00
0 13    .15   .15   .15   .15   .15   .15   .15   .15   .14   .13   .11   .10   .08   .05   .03   .01   .00   .00   .00   .00
0 14    .09   .09   .09   .09   .09   .09   .09   .09   .09   .08   .07   .06   .05   .04   .02   .01   .00   .00   .00   .00
0 15    .04   .04   .04   .04   .04   .04   .04   .04   .04   .04   .04   .03   .03   .02   .01   .01   .00   .00   .00   .00
0 16    .02   .02   .02   .02   .02   .02   .02   .02   .02   .02   .02   .01   .01   .01   .01   .00   .00   .00   .00   .00
0 17    .00   .00   .00   .00   .00   .00   .00   .00   .00   .00   .00   .00   .00   .00   .00   .00   .00   .00   .00   .00
0 18    .00   .00   .00   .00   .00   .00   .00   .00   .00   .00   .00   .00   .00   .00   .00   .00   .00   .00   .00   .00
0 19    .00   .00   .00   .00   .00   .00   .00   .00   .00   .00   .00   .00   .00   .00   .00   .00   .00   .00   .00   .00
0 20    .00   .00   .00   .00   .00   .00   .00   .00   .00   .00   .00   .00   .00   .00   .00   .00   .00   .00   .00   .00
0 21    .00   .00   .00   .00   .00   .00   .00   .00   .00   .00   .00   .00   .00   .00   .00   .00   .00   .00   .00   .00
0 22    .00   .00   .00   .00   .00   .00   .00   .00   .00   .00   .00   .00   .00   .00   .00   .00   .00   .00   .00   .00
0 23    .00   .00   .00   .00   .00   .00   .00   .00   .00   .00   .00   .00   .00   .00   .00   .00   .00   .00   .00   .00
0 24    .00   .00   .00   .00   .00   .00   .00   .00   .00   .00   .00   .00   .00   .00   .00   .00   .00   .00   .00   .00
0 25    .00   .00   .00   .00   .00   .00   .00   .00   .00   .00   .00   .00   .00   .00   .00   .00   .00   .00   .00   .00
0 26    .00   .00   .00   .00   .00   .00   .00   .00   .00   .00   .00   .00   .00   .00   .00   .00   .00   .00   .00   .00
1                  DRAWDOWN IN LAYER  1 AT END OF TIME STEP  5 IN STRESS PERIOD  1
           -----------------------------------------------------------------------

        21    22    23    24    25    26
 ............................................
0  1    .00   .00   .00   .00   .00   .00
0  2    .00   .00   .00   .00   .00   .00
0  3    .00   .00   .00   .00   .00   .00
0  4    .00   .00   .00   .00   .00   .00
0  5    .00   .00   .00   .00   .00   .00
0  6    .00   .00   .00   .00   .00   .00
0  7    .00   .00   .00   .00   .00   .00
0  8    .00   .00   .00   .00   .00   .00
0  9    .00   .00   .00   .00   .00   .00
0 10    .00   .00   .00   .00   .00   .00
0 11    .00   .00   .00   .00   .00   .00
0 12    .00   .00   .00   .00   .00   .00
0 13    .00   .00   .00   .00   .00   .00
0 14    .00   .00   .00   .00   .00   .00
0 15    .00   .00   .00   .00   .00   .00
0 16    .00   .00   .00   .00   .00   .00
0 17    .00   .00   .00   .00   .00   .00
0 18    .00   .00   .00   .00   .00   .00
0 19    .00   .00   .00   .00   .00   .00
0 20    .00   .00   .00   .00   .00   .00
0 21    .00   .00   .00   .00   .00   .00
0 22    .00   .00   .00   .00   .00   .00
0 23    .00   .00   .00   .00   .00   .00
0 24    .00   .00   .00   .00   .00   .00
0 25    .00   .00   .00   .00   .00   .00
0 26    .00   .00   .00   .00   .00   .00
0


          TIME SUMMARY AT END OF TIME STEP  5 IN STRESS PERIOD  1
                               SECONDS        MINUTES         HOURS          DAYS           YEARS
                           ---------------------------------------------------------------------------
      TIME STEP LENGTH         2478.29        41.3048        .688413        .286839E-01    .785322E-04
    STRESS PERIOD TIME         6967.03        116.117        1.93529        .806370E-01    .220772E-03
 TOTAL SIMULATION TIME         6967.03        116.117        1.93529        .806370E-01    .220772E-03
1
    10 ITERATIONS FOR TIME STEP   6 IN STRESS PERIOD  1
0MAXIMUM HEAD CHANGE FOR EACH ITERATION:
0 HEAD CHANGE LAYER,ROW,COL HEAD CHANGE LAYER,ROW,COL HEAD CHANGE LAYER,ROW,COL HEAD CHANGE LAYER,ROW,COL HEAD CHANGE LAYER,ROW,COL
 ------------------------------------------------------------------------------------------------------------------------------------
   -.2094     (  1,  1,  1)  -.1777     (  1,  1,  2)  -.5966E-01 (  1,  1,  1)  -.2969E-01 (  1,  1,  8)   .2560E-01 (  1,  7,  3)
    .2708E-02 (  1,  6,  4)  -.2401E-02 (  1, 10,  9)  -.2533E-02 (  1,  9,  8)  -.1233E-02 (  1, 12,  1)  -.4285E-03 (  1,  9,  9)
0
0HEAD/DRAWDOWN PRINTOUT FLAG = 1     TOTAL BUDGET PRINTOUT FLAG = 0     CELL-BY-CELL FLOW TERM FLAG = 0
 REUSING PREVIOUS VALUES OF IOFLG
1                  DRAWDOWN IN LAYER  1 AT END OF TIME STEP  6 IN STRESS PERIOD  1
           -----------------------------------------------------------------------

         1     2     3     4     5     6     7     8     9    10    11    12    13    14    15    16    17    18    19    20
 ................................................................................................................................
0  1   6.01  4.07  2.79  1.88  1.27  1.02   .86   .71   .57   .46   .36   .28   .21   .14   .08   .04   .01   .00   .00   .00
0  2   4.07  3.43  2.59  1.83  1.26  1.02   .86   .71   .57   .46   .36   .28   .21   .14   .08   .04   .01   .00   .00   .00
0  3   2.79  2.59  2.19  1.68  1.22  1.01   .86   .71   .57   .46   .36   .28   .21   .14   .08   .04   .01   .00   .00   .00
0  4   1.88  1.83  1.68  1.43  1.15   .99   .85   .70   .57   .45   .36   .28   .21   .14   .08   .04   .01   .00   .00   .00
0  5   1.27  1.26  1.22  1.15  1.05   .95   .83   .70   .56   .45   .36   .28   .21   .14   .08   .04   .01   .00   .00   .00
0  6   1.02  1.02  1.01   .99   .95   .89   .79   .68   .55   .45   .35   .28   .21   .14   .08   .04   .01   .00   .00   .00
0  7    .86   .86   .86   .85   .83   .79   .73   .64   .54   .44   .35   .27   .20   .13   .08   .04   .01   .00   .00   .00
0  8    .71   .71   .71   .70   .70   .68   .64   .58   .50   .42   .34   .27   .20   .13   .07   .04   .01   .00   .00   .00
0  9    .57   .57   .57   .57   .56   .55   .54   .50   .45   .38   .32   .25   .19   .13   .07   .04   .01   .00   .00   .00
0 10    .46   .46   .46   .45   .45   .45   .44   .42   .38   .34   .29   .23   .18   .12   .07   .03   .01   .00   .00   .00
0 11    .36   .36   .36   .36   .36   .35   .35   .34   .32   .29   .25   .21   .16   .11   .07   .03   .01   .00   .00   .00
0 12    .28   .28   .28   .28   .28   .28   .27   .27   .25   .23   .21   .18   .14   .10   .06   .03   .01   .00   .00   .00
0 13    .21   .21   .21   .21   .21   .21   .20   .20   .19   .18   .16   .14   .12   .09   .05   .03   .01   .00   .00   .00
0 14    .14   .14   .14   .14   .14   .14   .13   .13   .13   .12   .11   .10   .09   .07   .04   .02   .01   .00   .00   .00
0 15    .08   .08   .08   .08   .08   .08   .08   .07   .07   .07   .07   .06   .05   .04   .03   .02   .01   .00   .00   .00
0 16    .04   .04   .04   .04   .04   .04   .04   .04   .04   .03   .03   .03   .03   .02   .02   .01   .00   .00   .00   .00
0 17    .01   .01   .01   .01   .01   .01   .01   .01   .01   .01   .01   .01   .01   .01   .01   .00   .00   .00   .00   .00
0 18    .00   .00   .00   .00   .00   .00   .00   .00   .00   .00   .00   .00   .00   .00   .00   .00   .00   .00   .00   .00
0 19    .00   .00   .00   .00   .00   .00   .00   .00   .00   .00   .00   .00   .00   .00   .00   .00   .00   .00   .00   .00
0 20    .00   .00   .00   .00   .00   .00   .00   .00   .00   .00   .00   .00   .00   .00   .00   .00   .00   .00   .00   .00
0 21    .00   .00   .00   .00   .00   .00   .00   .00   .00   .00   .00   .00   .00   .00   .00   .00   .00   .00   .00   .00
0 22    .00   .00   .00   .00   .00   .00   .00   .00   .00   .00   .00   .00   .00   .00   .00   .00   .00   .00   .00   .00
0 23    .00   .00   .00   .00   .00   .00   .00   .00   .00   .00   .00   .00   .00   .00   .00   .00   .00   .00   .00   .00
0 24    .00   .00   .00   .00   .00   .00   .00   .00   .00   .00   .00   .00   .00   .00   .00   .00   .00   .00   .00   .00
0 25    .00   .00   .00   .00   .00   .00   .00   .00   .00   .00   .00   .00   .00   .00   .00   .00   .00   .00   .00   .00
0 26    .00   .00   .00   .00   .00   .00   .00   .00   .00   .00   .00   .00   .00   .00   .00   .00   .00   .00   .00   .00
1                  DRAWDOWN IN LAYER  1 AT END OF TIME STEP  6 IN STRESS PERIOD  1
           -----------------------------------------------------------------------

        21    22    23    24    25    26
 ............................................
0  1    .00   .00   .00   .00   .00   .00
0  2    .00   .00   .00   .00   .00   .00
0  3    .00   .00   .00   .00   .00   .00
0  4    .00   .00   .00   .00   .00   .00
0  5    .00   .00   .00   .00   .00   .00
0  6    .00   .00   .00   .00   .00   .00
0  7    .00   .00   .00   .00   .00   .00
0  8    .00   .00   .00   .00   .00   .00
0  9    .00   .00   .00   .00   .00   .00
0 10    .00   .00   .00   .00   .00   .00
0 11    .00   .00   .00   .00   .00   .00
0 12    .00   .00   .00   .00   .00   .00
0 13    .00   .00   .00   .00   .00   .00
0 14    .00   .00   .00   .00   .00   .00
0 15    .00   .00   .00   .00   .00   .00
0 16    .00   .00   .00   .00   .00   .00
0 17    .00   .00   .00   .00   .00   .00
0 18    .00   .00   .00   .00   .00   .00
0 19    .00   .00   .00   .00   .00   .00
0 20    .00   .00   .00   .00   .00   .00
0 21    .00   .00   .00   .00   .00   .00
0 22    .00   .00   .00   .00   .00   .00
0 23    .00   .00   .00   .00   .00   .00
0 24    .00   .00   .00   .00   .00   .00
0 25    .00   .00   .00   .00   .00   .00
0 26    .00   .00   .00   .00   .00   .00
0


          TIME SUMMARY AT END OF TIME STEP  6 IN STRESS PERIOD  1
                               SECONDS        MINUTES         HOURS          DAYS           YEARS
                           ---------------------------------------------------------------------------
      TIME STEP LENGTH         3504.30        58.4050        .973416        .405590E-01    .111044E-03
    STRESS PERIOD TIME         10471.3        174.522        2.90870        .121196        .331816E-03
 TOTAL SIMULATION TIME         10471.3        174.522        2.90870        .121196        .331816E-03
1
     9 ITERATIONS FOR TIME STEP   7 IN STRESS PERIOD  1
0MAXIMUM HEAD CHANGE FOR EACH ITERATION:
0 HEAD CHANGE LAYER,ROW,COL HEAD CHANGE LAYER,ROW,COL HEAD CHANGE LAYER,ROW,COL HEAD CHANGE LAYER,ROW,COL HEAD CHANGE LAYER,ROW,COL
 ------------------------------------------------------------------------------------------------------------------------------------
   -.1621     (  1,  1,  1)  -.1764     (  1,  1,  2)  -.8640E-01 (  1,  1,  1)  -.2874E-01 (  1,  7,  7)   .1480E-01 (  1,  7,  6)
   -.1417E-02 (  1, 10,  9)  -.1714E-02 (  1, 10, 10)  -.1748E-02 (  1,  9,  9)  -.8819E-03 (  1, 12,  1)
0
0HEAD/DRAWDOWN PRINTOUT FLAG = 1     TOTAL BUDGET PRINTOUT FLAG = 0     CELL-BY-CELL FLOW TERM FLAG = 0
 REUSING PREVIOUS VALUES OF IOFLG
1                  DRAWDOWN IN LAYER  1 AT END OF TIME STEP  7 IN STRESS PERIOD  1
           -----------------------------------------------------------------------

         1     2     3     4     5     6     7     8     9    10    11    12    13    14    15    16    17    18    19    20
 ................................................................................................................................
0  1   6.41  4.46  3.15  2.19  1.46  1.08   .92   .77   .63   .52   .42   .34   .26   .19   .12   .06   .03   .01   .00   .00
0  2   4.46  3.82  2.96  2.13  1.44  1.08   .92   .77   .63   .52   .42   .34   .26   .19   .12   .06   .03   .01   .00   .00
0  3   3.15  2.96  2.52  1.96  1.40  1.07   .92   .77   .63   .52   .42   .34   .26   .19   .12   .06   .03   .01   .00   .00
0  4   2.19  2.13  1.96  1.67  1.30  1.05   .91   .77   .63   .52   .42   .34   .26   .19   .11   .06   .03   .01   .00   .00
0  5   1.46  1.44  1.40  1.30  1.15  1.01   .89   .76   .63   .52   .42   .34   .26   .19   .11   .06   .03   .01   .00   .00
0  6   1.08  1.08  1.07  1.05  1.01   .95   .86   .74   .62   .51   .42   .34   .26   .18   .11   .06   .03   .01   .00   .00
0  7    .92   .92   .92   .91   .89   .86   .80   .71   .60   .50   .41   .33   .26   .18   .11   .06   .03   .01   .00   .00
0  8    .77   .77   .77   .77   .76   .74   .71   .65   .57   .48   .40   .33   .26   .18   .11   .06   .03   .01   .00   .00
0  9    .63   .63   .63   .63   .63   .62   .60   .57   .51   .45   .38   .31   .25   .18   .11   .06   .03   .01   .00   .00
0 10    .52   .52   .52   .52   .52   .51   .50   .48   .45   .40   .35   .29   .23   .17   .11   .06   .02   .01   .00   .00
0 11    .42   .42   .42   .42   .42   .42   .41   .40   .38   .35   .31   .26   .22   .16   .10   .06   .02   .01   .00   .00
0 12    .34   .34   .34   .34   .34   .34   .33   .33   .31   .29   .26   .23   .19   .15   .10   .05   .02   .01   .00   .00
0 13    .26   .26   .26   .26   .26   .26   .26   .26   .25   .23   .22   .19   .16   .13   .09   .05   .02   .01   .00   .00
0 14    .19   .19   .19   .19   .19   .18   .18   .18   .18   .17   .16   .15   .13   .10   .07   .04   .02   .01   .00   .00
0 15    .12   .12   .12   .12   .11   .11   .11   .11   .11   .11   .10   .10   .09   .07   .05   .03   .02   .00   .00   .00
0 16    .06   .06   .06   .06   .06   .06   .06   .06   .06   .06   .06   .05   .05   .04   .03   .02   .01   .00   .00   .00
0 17    .03   .03   .03   .03   .03   .03   .03   .03   .03   .02   .02   .02   .02   .02   .02   .01   .01   .00   .00   .00
0 18    .01   .01   .01   .01   .01   .01   .01   .01   .01   .01   .01   .01   .01   .01   .00   .00   .00   .00   .00   .00
0 19    .00   .00   .00   .00   .00   .00   .00   .00   .00   .00   .00   .00   .00   .00   .00   .00   .00   .00   .00   .00
0 20    .00   .00   .00   .00   .00   .00   .00   .00   .00   .00   .00   .00   .00   .00   .00   .00   .00   .00   .00   .00
0 21    .00   .00   .00   .00   .00   .00   .00   .00   .00   .00   .00   .00   .00   .00   .00   .00   .00   .00   .00   .00
0 22    .00   .00   .00   .00   .00   .00   .00   .00   .00   .00   .00   .00   .00   .00   .00   .00   .00   .00   .00   .00
0 23    .00   .00   .00   .00   .00   .00   .00   .00   .00   .00   .00   .00   .00   .00   .00   .00   .00   .00   .00   .00
0 24    .00   .00   .00   .00   .00   .00   .00   .00   .00   .00   .00   .00   .00   .00   .00   .00   .00   .00   .00   .00
0 25    .00   .00   .00   .00   .00   .00   .00   .00   .00   .00   .00   .00   .00   .00   .00   .00   .00   .00   .00   .00
0 26    .00   .00   .00   .00   .00   .00   .00   .00   .00   .00   .00   .00   .00   .00   .00   .00   .00   .00   .00   .00
1                  DRAWDOWN IN LAYER  1 AT END OF TIME STEP  7 IN STRESS PERIOD  1
           -----------------------------------------------------------------------

        21    22    23    24    25    26
 ............................................
0  1    .00   .00   .00   .00   .00   .00
0  2    .00   .00   .00   .00   .00   .00
0  3    .00   .00   .00   .00   .00   .00
0  4    .00   .00   .00   .00   .00   .00
0  5    .00   .00   .00   .00   .00   .00
0  6    .00   .00   .00   .00   .00   .00
0  7    .00   .00   .00   .00   .00   .00
0  8    .00   .00   .00   .00   .00   .00
0  9    .00   .00   .00   .00   .00   .00
0 10    .00   .00   .00   .00   .00   .00
0 11    .00   .00   .00   .00   .00   .00
0 12    .00   .00   .00   .00   .00   .00
0 13    .00   .00   .00   .00   .00   .00
0 14    .00   .00   .00   .00   .00   .00
0 15    .00   .00   .00   .00   .00   .00
0 16    .00   .00   .00   .00   .00   .00
0 17    .00   .00   .00   .00   .00   .00
0 18    .00   .00   .00   .00   .00   .00
0 19    .00   .00   .00   .00   .00   .00
0 20    .00   .00   .00   .00   .00   .00
0 21    .00   .00   .00   .00   .00   .00
0 22    .00   .00   .00   .00   .00   .00
0 23    .00   .00   .00   .00   .00   .00
0 24    .00   .00   .00   .00   .00   .00
0 25    .00   .00   .00   .00   .00   .00
0 26    .00   .00   .00   .00   .00   .00
0


          TIME SUMMARY AT END OF TIME STEP  7 IN STRESS PERIOD  1
                               SECONDS        MINUTES         HOURS          DAYS           YEARS
                           ---------------------------------------------------------------------------
      TIME STEP LENGTH         4955.08        82.5846        1.37641        .573504E-01    .157017E-03
    STRESS PERIOD TIME         15426.4        257.107        4.28511        .178546        .488833E-03
 TOTAL SIMULATION TIME         15426.4        257.107        4.28511        .178546        .488833E-03
1
    10 ITERATIONS FOR TIME STEP   8 IN STRESS PERIOD  1
0MAXIMUM HEAD CHANGE FOR EACH ITERATION:
0 HEAD CHANGE LAYER,ROW,COL HEAD CHANGE LAYER,ROW,COL HEAD CHANGE LAYER,ROW,COL HEAD CHANGE LAYER,ROW,COL HEAD CHANGE LAYER,ROW,COL
 ------------------------------------------------------------------------------------------------------------------------------------
   -.1421     (  1,  4,  4)  -.1706     (  1,  2,  2)  -.1169     (  1,  1,  1)  -.3129E-01 (  1,  1,  9)   .1799E-01 (  1,  7,  7)
    .2470E-02 (  1,  7,  4)  -.2207E-02 (  1, 11, 11)  -.2108E-02 (  1,  9, 10)  -.1020E-02 (  1, 13,  3)  -.4030E-03 (  1, 10, 10)
0
0HEAD/DRAWDOWN PRINTOUT FLAG = 1     TOTAL BUDGET PRINTOUT FLAG = 0     CELL-BY-CELL FLOW TERM FLAG = 0
 REUSING PREVIOUS VALUES OF IOFLG
1                  DRAWDOWN IN LAYER  1 AT END OF TIME STEP  8 IN STRESS PERIOD  1
           -----------------------------------------------------------------------

         1     2     3     4     5     6     7     8     9    10    11    12    13    14    15    16    17    18    19    20
 ................................................................................................................................
0  1   6.80  4.85  3.52  2.51  1.69  1.20  1.01   .85   .71   .59   .49   .40   .32   .24   .16   .10   .05   .02   .00   .00
0  2   4.85  4.20  3.32  2.45  1.67  1.19  1.00   .85   .71   .59   .49   .40   .32   .24   .16   .10   .05   .02   .00   .00
0  3   3.52  3.32  2.87  2.27  1.62  1.18  1.00   .85   .71   .59   .49   .40   .32   .24   .16   .10   .05   .02   .00   .00
0  4   2.51  2.45  2.27  1.94  1.50  1.15   .99   .84   .70   .59   .49   .40   .32   .24   .16   .10   .05   .02   .00   .00
0  5   1.69  1.67  1.62  1.50  1.29  1.09   .97   .84   .70   .59   .49   .40   .32   .24   .16   .10   .05   .02   .00   .00
0  6   1.20  1.19  1.18  1.15  1.09  1.02   .93   .82   .69   .58   .49   .40   .32   .24   .16   .10   .05   .02   .00   .00
0  7   1.01  1.01  1.00   .99   .97   .93   .87   .78   .67   .57   .48   .40   .32   .24   .16   .10   .05   .02   .00   .00
0  8    .85   .85   .85   .84   .84   .82   .78   .72   .64   .55   .47   .39   .32   .24   .16   .10   .05   .02   .00   .00
0  9    .71   .71   .71   .70   .70   .69   .67   .64   .58   .52   .45   .38   .31   .23   .16   .09   .05   .02   .00   .00
0 10    .59   .59   .59   .59   .59   .58   .57   .55   .52   .47   .41   .35   .29   .22   .15   .09   .05   .02   .00   .00
0 11    .49   .49   .49   .49   .49   .49   .48   .47   .45   .41   .37   .33   .27   .21   .15   .09   .04   .02   .00   .00
0 12    .40   .40   .40   .40   .40   .40   .40   .39   .38   .35   .33   .29   .25   .20   .14   .09   .04   .02   .00   .00
0 13    .32   .32   .32   .32   .32   .32   .32   .32   .31   .29   .27   .25   .22   .17   .13   .08   .04   .02   .00   .00
0 14    .24   .24   .24   .24   .24   .24   .24   .24   .23   .22   .21   .20   .17   .14   .11   .07   .04   .01   .00   .00
0 15    .16   .16   .16   .16   .16   .16   .16   .16   .16   .15   .15   .14   .13   .11   .08   .06   .03   .01   .00   .00
0 16    .10   .10   .10   .10   .10   .10   .10   .10   .09   .09   .09   .09   .08   .07   .06   .04   .02   .01   .00   .00
0 17    .05   .05   .05   .05   .05   .05   .05   .05   .05   .05   .04   .04   .04   .04   .03   .02   .01   .01   .00   .00
0 18    .02   .02   .02   .02   .02   .02   .02   .02   .02   .02   .02   .02   .02   .01   .01   .01   .01   .00   .00   .00
0 19    .00   .00   .00   .00   .00   .00   .00   .00   .00   .00   .00   .00   .00   .00   .00   .00   .00   .00   .00   .00
0 20    .00   .00   .00   .00   .00   .00   .00   .00   .00   .00   .00   .00   .00   .00   .00   .00   .00   .00   .00   .00
0 21    .00   .00   .00   .00   .00   .00   .00   .00   .00   .00   .00   .00   .00   .00   .00   .00   .00   .00   .00   .00
0 22    .00   .00   .00   .00   .00   .00   .00   .00   .00   .00   .00   .00   .00   .00   .00   .00   .00   .00   .00   .00
0 23    .00   .00   .00   .00   .00   .00   .00   .00   .00   .00   .00   .00   .00   .00   .00   .00   .00   .00   .00   .00
0 24    .00   .00   .00   .00   .00   .00   .00   .00   .00   .00   .00   .00   .00   .00   .00   .00   .00   .00   .00   .00
0 25    .00   .00   .00   .00   .00   .00   .00   .00   .00   .00   .00   .00   .00   .00   .00   .00   .00   .00   .00   .00
0 26    .00   .00   .00   .00   .00   .00   .00   .00   .00   .00   .00   .00   .00   .00   .00   .00   .00   .00   .00   .00
1                  DRAWDOWN IN LAYER  1 AT END OF TIME STEP  8 IN STRESS PERIOD  1
           -----------------------------------------------------------------------

        21    22    23    24    25    26
 ............................................
0  1    .00   .00   .00   .00   .00   .00
0  2    .00   .00   .00   .00   .00   .00
0  3    .00   .00   .00   .00   .00   .00
0  4    .00   .00   .00   .00   .00   .00
0  5    .00   .00   .00   .00   .00   .00
0  6    .00   .00   .00   .00   .00   .00
0  7    .00   .00   .00   .00   .00   .00
0  8    .00   .00   .00   .00   .00   .00
0  9    .00   .00   .00   .00   .00   .00
0 10    .00   .00   .00   .00   .00   .00
0 11    .00   .00   .00   .00   .00   .00
0 12    .00   .00   .00   .00   .00   .00
0 13    .00   .00   .00   .00   .00   .00
0 14    .00   .00   .00   .00   .00   .00
0 15    .00   .00   .00   .00   .00   .00
0 16    .00   .00   .00   .00   .00   .00
0 17    .00   .00   .00   .00   .00   .00
0 18    .00   .00   .00   .00   .00   .00
0 19    .00   .00   .00   .00   .00   .00
0 20    .00   .00   .00   .00   .00   .00
0 21    .00   .00   .00   .00   .00   .00
0 22    .00   .00   .00   .00   .00   .00
0 23    .00   .00   .00   .00   .00   .00
0 24    .00   .00   .00   .00   .00   .00
0 25    .00   .00   .00   .00   .00   .00
0 26    .00   .00   .00   .00   .00   .00
0


          TIME SUMMARY AT END OF TIME STEP  8 IN STRESS PERIOD  1
                               SECONDS        MINUTES         HOURS          DAYS           YEARS
                           ---------------------------------------------------------------------------
      TIME STEP LENGTH         7006.48        116.775        1.94624        .810935E-01    .222022E-03
    STRESS PERIOD TIME         22432.9        373.881        6.23136        .259640        .710855E-03
 TOTAL SIMULATION TIME         22432.9        373.881        6.23136        .259640        .710855E-03
1
     9 ITERATIONS FOR TIME STEP   9 IN STRESS PERIOD  1
0MAXIMUM HEAD CHANGE FOR EACH ITERATION:
0 HEAD CHANGE LAYER,ROW,COL HEAD CHANGE LAYER,ROW,COL HEAD CHANGE LAYER,ROW,COL HEAD CHANGE LAYER,ROW,COL HEAD CHANGE LAYER,ROW,COL
 ------------------------------------------------------------------------------------------------------------------------------------
   -.1339     (  1,  4,  4)  -.1611     (  1,  2,  2)  -.1461     (  1,  1,  1)  -.3034E-01 (  1,  5,  9)   .1355E-01 (  1,  8,  6)
    .4319E-02 (  1,  7,  6)  -.1764E-02 (  1, 11, 11)  -.1801E-02 (  1, 10, 10)  -.7121E-03 (  1, 13,  1)
0
0HEAD/DRAWDOWN PRINTOUT FLAG = 1     TOTAL BUDGET PRINTOUT FLAG = 0     CELL-BY-CELL FLOW TERM FLAG = 0
 REUSING PREVIOUS VALUES OF IOFLG
1                  DRAWDOWN IN LAYER  1 AT END OF TIME STEP  9 IN STRESS PERIOD  1
           -----------------------------------------------------------------------

         1     2     3     4     5     6     7     8     9    10    11    12    13    14    15    16    17    18    19    20
 ................................................................................................................................
0  1   7.18  5.22  3.88  2.84  1.96  1.36  1.05   .90   .77   .65   .55   .46   .38   .30   .21   .14   .08   .03   .01   .00
0  2   5.22  4.57  3.67  2.78  1.94  1.35  1.05   .90   .76   .65   .55   .46   .38   .30   .21   .14   .08   .03   .01   .00
0  3   3.88  3.67  3.21  2.58  1.87  1.33  1.05   .90   .76   .65   .55   .46   .38   .30   .21   .14   .08   .03   .01   .00
0  4   2.84  2.78  2.58  2.24  1.74  1.29  1.04   .90   .76   .65   .55   .46   .38   .30   .21   .14   .08   .03   .01   .00
0  5   1.96  1.94  1.87  1.74  1.49  1.21  1.02   .89   .76   .65   .55   .46   .38   .30   .21   .14   .08   .03   .01   .00
0  6   1.36  1.35  1.33  1.29  1.21  1.09   .99   .87   .75   .64   .55   .46   .38   .29   .21   .14   .08   .03   .01   .00
0  7   1.05  1.05  1.05  1.04  1.02   .99   .93   .84   .73   .63   .54   .46   .38   .29   .21   .14   .08   .03   .01   .00
0  8    .90   .90   .90   .90   .89   .87   .84   .78   .70   .61   .53   .45   .37   .29   .21   .14   .08   .03   .01   .00
0  9    .77   .76   .76   .76   .76   .75   .73   .70   .64   .58   .51   .44   .37   .29   .21   .14   .07   .03   .01   .00
0 10    .65   .65   .65   .65   .65   .64   .63   .61   .58   .53   .47   .41   .35   .28   .20   .13   .07   .03   .01   .00
0 11    .55   .55   .55   .55   .55   .55   .54   .53   .51   .47   .43   .38   .33   .27   .19   .13   .07   .03   .01   .00
0 12    .46   .46   .46   .46   .46   .46   .46   .45   .44   .41   .38   .35   .30   .25   .18   .12   .07   .03   .01   .00
0 13    .38   .38   .38   .38   .38   .38   .38   .37   .37   .35   .33   .30   .27   .23   .17   .12   .07   .03   .01   .00
0 14    .30   .30   .30   .30   .30   .29   .29   .29   .29   .28   .27   .25   .23   .19   .15   .11   .06   .03   .01   .00
0 15    .21   .21   .21   .21   .21   .21   .21   .21   .21   .20   .19   .18   .17   .15   .12   .09   .05   .02   .01   .00
0 16    .14   .14   .14   .14   .14   .14   .14   .14   .14   .13   .13   .12   .12   .11   .09   .07   .04   .02   .01   .00
0 17    .08   .08   .08   .08   .08   .08   .08   .08   .07   .07   .07   .07   .07   .06   .05   .04   .03   .01   .00   .00
0 18    .03   .03   .03   .03   .03   .03   .03   .03   .03   .03   .03   .03   .03   .03   .02   .02   .01   .01   .00   .00
0 19    .01   .01   .01   .01   .01   .01   .01   .01   .01   .01   .01   .01   .01   .01   .01   .01   .00   .00   .00   .00
0 20    .00   .00   .00   .00   .00   .00   .00   .00   .00   .00   .00   .00   .00   .00   .00   .00   .00   .00   .00   .00
0 21    .00   .00   .00   .00   .00   .00   .00   .00   .00   .00   .00   .00   .00   .00   .00   .00   .00   .00   .00   .00
0 22    .00   .00   .00   .00   .00   .00   .00   .00   .00   .00   .00   .00   .00   .00   .00   .00   .00   .00   .00   .00
0 23    .00   .00   .00   .00   .00   .00   .00   .00   .00   .00   .00   .00   .00   .00   .00   .00   .00   .00   .00   .00
0 24    .00   .00   .00   .00   .00   .00   .00   .00   .00   .00   .00   .00   .00   .00   .00   .00   .00   .00   .00   .00
0 25    .00   .00   .00   .00   .00   .00   .00   .00   .00   .00   .00   .00   .00   .00   .00   .00   .00   .00   .00   .00
0 26    .00   .00   .00   .00   .00   .00   .00   .00   .00   .00   .00   .00   .00   .00   .00   .00   .00   .00   .00   .00
1                  DRAWDOWN IN LAYER  1 AT END OF TIME STEP  9 IN STRESS PERIOD  1
           -----------------------------------------------------------------------

        21    22    23    24    25    26
 ............................................
0  1    .00   .00   .00   .00   .00   .00
0  2    .00   .00   .00   .00   .00   .00
0  3    .00   .00   .00   .00   .00   .00
0  4    .00   .00   .00   .00   .00   .00
0  5    .00   .00   .00   .00   .00   .00
0  6    .00   .00   .00   .00   .00   .00
0  7    .00   .00   .00   .00   .00   .00
0  8    .00   .00   .00   .00   .00   .00
0  9    .00   .00   .00   .00   .00   .00
0 10    .00   .00   .00   .00   .00   .00
0 11    .00   .00   .00   .00   .00   .00
0 12    .00   .00   .00   .00   .00   .00
0 13    .00   .00   .00   .00   .00   .00
0 14    .00   .00   .00   .00   .00   .00
0 15    .00   .00   .00   .00   .00   .00
0 16    .00   .00   .00   .00   .00   .00
0 17    .00   .00   .00   .00   .00   .00
0 18    .00   .00   .00   .00   .00   .00
0 19    .00   .00   .00   .00   .00   .00
0 20    .00   .00   .00   .00   .00   .00
0 21    .00   .00   .00   .00   .00   .00
0 22    .00   .00   .00   .00   .00   .00
0 23    .00   .00   .00   .00   .00   .00
0 24    .00   .00   .00   .00   .00   .00
0 25    .00   .00   .00   .00   .00   .00
0 26    .00   .00   .00   .00   .00   .00
0


          TIME SUMMARY AT END OF TIME STEP  9 IN STRESS PERIOD  1
                               SECONDS        MINUTES         HOURS          DAYS           YEARS
                           ---------------------------------------------------------------------------
      TIME STEP LENGTH         9907.16        165.119        2.75199        .114666        .313939E-03
    STRESS PERIOD TIME         32340.0        539.001        8.98335        .374306        .102479E-02
 TOTAL SIMULATION TIME         32340.0        539.001        8.98335        .374306        .102479E-02
1
    10 ITERATIONS FOR TIME STEP  10 IN STRESS PERIOD  1
0MAXIMUM HEAD CHANGE FOR EACH ITERATION:
0 HEAD CHANGE LAYER,ROW,COL HEAD CHANGE LAYER,ROW,COL HEAD CHANGE LAYER,ROW,COL HEAD CHANGE LAYER,ROW,COL HEAD CHANGE LAYER,ROW,COL
 ------------------------------------------------------------------------------------------------------------------------------------
   -.1298     (  1,  4,  5)  -.1474     (  1,  2,  2)  -.1735     (  1,  1,  1)  -.3159E-01 (  1,  1, 10)   .1402E-01 (  1,  8,  7)
    .3482E-02 (  1,  7,  7)  -.2188E-02 (  1, 11, 11)  -.2060E-02 (  1,  9, 11)  -.1067E-02 (  1,  3, 14)  -.4028E-03 (  1, 11, 11)
0
0HEAD/DRAWDOWN PRINTOUT FLAG = 1     TOTAL BUDGET PRINTOUT FLAG = 0     CELL-BY-CELL FLOW TERM FLAG = 0
 REUSING PREVIOUS VALUES OF IOFLG
1                  DRAWDOWN IN LAYER  1 AT END OF TIME STEP 10 IN STRESS PERIOD  1
           -----------------------------------------------------------------------

         1     2     3     4     5     6     7     8     9    10    11    12    13    14    15    16    17    18    19    20
 ................................................................................................................................
0  1   7.55  5.59  4.24  3.18  2.25  1.56  1.15   .98   .84   .72   .62   .53   .44   .35   .26   .18   .11   .06   .02   .00
0  2   5.59  4.93  4.03  3.11  2.23  1.55  1.15   .98   .84   .72   .62   .53   .44   .35   .26   .18   .11   .06   .02   .00
0  3   4.24  4.03  3.56  2.91  2.16  1.53  1.14   .98   .83   .72   .62   .53   .44   .35   .26   .18   .11   .06   .02   .00
0  4   3.18  3.11  2.91  2.55  2.00  1.48  1.13   .97   .83   .72   .62   .53   .44   .35   .26   .18   .11   .06   .02   .00
0  5   2.25  2.23  2.16  2.00  1.72  1.37  1.10   .97   .83   .72   .61   .53   .44   .35   .26   .18   .11   .06   .02   .00
0  6   1.56  1.55  1.53  1.48  1.37  1.21  1.05   .94   .82   .71   .61   .53   .44   .35   .26   .18   .11   .06   .02   .00
0  7   1.15  1.15  1.14  1.13  1.10  1.05   .99   .91   .80   .70   .61   .52   .44   .35   .26   .18   .11   .06   .02   .00
0  8    .98   .98   .98   .97   .97   .94   .91   .85   .77   .68   .59   .51   .44   .35   .26   .18   .11   .06   .02   .00
0  9    .84   .84   .83   .83   .83   .82   .80   .77   .71   .64   .57   .50   .43   .34   .26   .18   .11   .06   .02   .00
0 10    .72   .72   .72   .72   .72   .71   .70   .68   .64   .60   .54   .48   .41   .34   .25   .18   .11   .06   .02   .00
0 11    .62   .62   .62   .62   .61   .61   .61   .59   .57   .54   .50   .45   .39   .32   .25   .18   .11   .05   .02   .00
0 12    .53   .53   .53   .53   .53   .53   .52   .51   .50   .48   .45   .41   .36   .30   .24   .17   .11   .05   .02   .00
0 13    .44   .44   .44   .44   .44   .44   .44   .44   .43   .41   .39   .36   .33   .28   .22   .16   .10   .05   .02   .00
0 14    .35   .35   .35   .35   .35   .35   .35   .35   .34   .34   .32   .30   .28   .25   .20   .15   .09   .05   .02   .00
0 15    .26   .26   .26   .26   .26   .26   .26   .26   .26   .25   .25   .24   .22   .20   .17   .13   .08   .04   .02   .00
0 16    .18   .18   .18   .18   .18   .18   .18   .18   .18   .18   .18   .17   .16   .15   .13   .10   .07   .04   .01   .00
0 17    .11   .11   .11   .11   .11   .11   .11   .11   .11   .11   .11   .11   .10   .09   .08   .07   .05   .03   .01   .00
0 18    .06   .06   .06   .06   .06   .06   .06   .06   .06   .06   .05   .05   .05   .05   .04   .04   .03   .02   .01   .00
0 19    .02   .02   .02   .02   .02   .02   .02   .02   .02   .02   .02   .02   .02   .02   .02   .01   .01   .01   .00   .00
0 20    .00   .00   .00   .00   .00   .00   .00   .00   .00   .00   .00   .00   .00   .00   .00   .00   .00   .00   .00   .00
0 21    .00   .00   .00   .00   .00   .00   .00   .00   .00   .00   .00   .00   .00   .00   .00   .00   .00   .00   .00   .00
0 22    .00   .00   .00   .00   .00   .00   .00   .00   .00   .00   .00   .00   .00   .00   .00   .00   .00   .00   .00   .00
0 23    .00   .00   .00   .00   .00   .00   .00   .00   .00   .00   .00   .00   .00   .00   .00   .00   .00   .00   .00   .00
0 24    .00   .00   .00   .00   .00   .00   .00   .00   .00   .00   .00   .00   .00   .00   .00   .00   .00   .00   .00   .00
0 25    .00   .00   .00   .00   .00   .00   .00   .00   .00   .00   .00   .00   .00   .00   .00   .00   .00   .00   .00   .00
0 26    .00   .00   .00   .00   .00   .00   .00   .00   .00   .00   .00   .00   .00   .00   .00   .00   .00   .00   .00   .00
1                  DRAWDOWN IN LAYER  1 AT END OF TIME STEP 10 IN STRESS PERIOD  1
           -----------------------------------------------------------------------

        21    22    23    24    25    26
 ............................................
0  1    .00   .00   .00   .00   .00   .00
0  2    .00   .00   .00   .00   .00   .00
0  3    .00   .00   .00   .00   .00   .00
0  4    .00   .00   .00   .00   .00   .00
0  5    .00   .00   .00   .00   .00   .00
0  6    .00   .00   .00   .00   .00   .00
0  7    .00   .00   .00   .00   .00   .00
0  8    .00   .00   .00   .00   .00   .00
0  9    .00   .00   .00   .00   .00   .00
0 10    .00   .00   .00   .00   .00   .00
0 11    .00   .00   .00   .00   .00   .00
0 12    .00   .00   .00   .00   .00   .00
0 13    .00   .00   .00   .00   .00   .00
0 14    .00   .00   .00   .00   .00   .00
0 15    .00   .00   .00   .00   .00   .00
0 16    .00   .00   .00   .00   .00   .00
0 17    .00   .00   .00   .00   .00   .00
0 18    .00   .00   .00   .00   .00   .00
0 19    .00   .00   .00   .00   .00   .00
0 20    .00   .00   .00   .00   .00   .00
0 21    .00   .00   .00   .00   .00   .00
0 22    .00   .00   .00   .00   .00   .00
0 23    .00   .00   .00   .00   .00   .00
0 24    .00   .00   .00   .00   .00   .00
0 25    .00   .00   .00   .00   .00   .00
0 26    .00   .00   .00   .00   .00   .00
0


          TIME SUMMARY AT END OF TIME STEP 10 IN STRESS PERIOD  1
                               SECONDS        MINUTES         HOURS          DAYS           YEARS
                           ---------------------------------------------------------------------------
      TIME STEP LENGTH         14008.7        233.479        3.89131        .162138        .443910E-03
    STRESS PERIOD TIME         46348.8        772.480        12.8747        .536444        .146870E-02
 TOTAL SIMULATION TIME         46348.8        772.480        12.8747        .536444        .146870E-02
1
     9 ITERATIONS FOR TIME STEP  11 IN STRESS PERIOD  1
0MAXIMUM HEAD CHANGE FOR EACH ITERATION:
0 HEAD CHANGE LAYER,ROW,COL HEAD CHANGE LAYER,ROW,COL HEAD CHANGE LAYER,ROW,COL HEAD CHANGE LAYER,ROW,COL HEAD CHANGE LAYER,ROW,COL
 ------------------------------------------------------------------------------------------------------------------------------------
   -.1278     (  1,  5,  5)  -.1341     (  1,  2,  3)  -.1974     (  1,  1,  1)  -.3193E-01 (  1,  1, 10)   .1560E-01 (  1,  8,  8)
   -.1739E-02 (  1, 11, 11)  -.2257E-02 (  1, 12, 12)  -.1987E-02 (  1, 10, 11)  -.9924E-03 (  1,  3, 15)
0
0HEAD/DRAWDOWN PRINTOUT FLAG = 1     TOTAL BUDGET PRINTOUT FLAG = 0     CELL-BY-CELL FLOW TERM FLAG = 0
 REUSING PREVIOUS VALUES OF IOFLG
1                  DRAWDOWN IN LAYER  1 AT END OF TIME STEP 11 IN STRESS PERIOD  1
           -----------------------------------------------------------------------

         1     2     3     4     5     6     7     8     9    10    11    12    13    14    15    16    17    18    19    20
 ................................................................................................................................
0  1   7.91  5.95  4.59  3.52  2.55  1.79  1.29  1.03   .89   .78   .68   .59   .50   .41   .32   .24   .15   .09   .04   .01
0  2   5.95  5.29  4.38  3.45  2.53  1.79  1.29  1.03   .89   .78   .68   .59   .50   .41   .32   .24   .15   .09   .04   .01
0  3   4.59  4.38  3.91  3.25  2.46  1.76  1.28  1.03   .89   .78   .68   .59   .50   .41   .32   .24   .15   .09   .04   .01
0  4   3.52  3.45  3.25  2.87  2.29  1.70  1.27  1.03   .89   .78   .68   .59   .50   .41   .32   .24   .15   .09   .04   .01
0  5   2.55  2.53  2.46  2.29  1.98  1.57  1.22  1.02   .89   .78   .68   .59   .50   .41   .32   .24   .15   .09   .04   .01
0  6   1.79  1.79  1.76  1.70  1.57  1.37  1.15  1.01   .88   .77   .67   .59   .50   .41   .32   .24   .15   .09   .04   .01
0  7   1.29  1.29  1.28  1.27  1.22  1.15  1.05   .97   .86   .76   .67   .58   .50   .41   .32   .23   .15   .09   .04   .01
0  8   1.03  1.03  1.03  1.03  1.02  1.01   .97   .91   .83   .74   .66   .57   .50   .41   .32   .23   .15   .09   .04   .01
0  9    .89   .89   .89   .89   .89   .88   .86   .83   .77   .70   .63   .56   .49   .40   .31   .23   .15   .09   .04   .01
0 10    .78   .78   .78   .78   .78   .77   .76   .74   .70   .66   .60   .54   .47   .39   .31   .23   .15   .09   .04   .01
0 11    .68   .68   .68   .68   .68   .67   .67   .66   .63   .60   .56   .51   .45   .38   .30   .23   .15   .08   .04   .01
0 12    .59   .59   .59   .59   .59   .59   .58   .57   .56   .54   .51   .47   .42   .36   .29   .22   .15   .08   .04   .01
0 13    .51   .50   .50   .50   .50   .50   .50   .50   .49   .47   .45   .42   .39   .34   .27   .21   .14   .08   .04   .01
0 14    .41   .41   .41   .41   .41   .41   .41   .41   .40   .39   .38   .36   .34   .30   .25   .19   .13   .08   .03   .01
0 15    .32   .32   .32   .32   .32   .32   .32   .32   .31   .31   .30   .29   .27   .25   .21   .17   .12   .07   .03   .01
0 16    .24   .24   .24   .24   .24   .24   .23   .23   .23   .23   .23   .22   .21   .19   .17   .14   .10   .06   .03   .01
0 17    .15   .15   .15   .15   .15   .15   .15   .15   .15   .15   .15   .15   .14   .13   .12   .10   .08   .05   .02   .01
0 18    .09   .09   .09   .09   .09   .09   .09   .09   .09   .09   .08   .08   .08   .08   .07   .06   .05   .03   .02   .01
0 19    .04   .04   .04   .04   .04   .04   .04   .04   .04   .04   .04   .04   .04   .03   .03   .03   .02   .02   .01   .00
0 20    .01   .01   .01   .01   .01   .01   .01   .01   .01   .01   .01   .01   .01   .01   .01   .01   .01   .01   .00   .00
0 21    .00   .00   .00   .00   .00   .00   .00   .00   .00   .00   .00   .00   .00   .00   .00   .00   .00   .00   .00   .00
0 22    .00   .00   .00   .00   .00   .00   .00   .00   .00   .00   .00   .00   .00   .00   .00   .00   .00   .00   .00   .00
0 23    .00   .00   .00   .00   .00   .00   .00   .00   .00   .00   .00   .00   .00   .00   .00   .00   .00   .00   .00   .00
0 24    .00   .00   .00   .00   .00   .00   .00   .00   .00   .00   .00   .00   .00   .00   .00   .00   .00   .00   .00   .00
0 25    .00   .00   .00   .00   .00   .00   .00   .00   .00   .00   .00   .00   .00   .00   .00   .00   .00   .00   .00   .00
0 26    .00   .00   .00   .00   .00   .00   .00   .00   .00   .00   .00   .00   .00   .00   .00   .00   .00   .00   .00   .00
1                  DRAWDOWN IN LAYER  1 AT END OF TIME STEP 11 IN STRESS PERIOD  1
           -----------------------------------------------------------------------

        21    22    23    24    25    26
 ............................................
0  1    .00   .00   .00   .00   .00   .00
0  2    .00   .00   .00   .00   .00   .00
0  3    .00   .00   .00   .00   .00   .00
0  4    .00   .00   .00   .00   .00   .00
0  5    .00   .00   .00   .00   .00   .00
0  6    .00   .00   .00   .00   .00   .00
0  7    .00   .00   .00   .00   .00   .00
0  8    .00   .00   .00   .00   .00   .00
0  9    .00   .00   .00   .00   .00   .00
0 10    .00   .00   .00   .00   .00   .00
0 11    .00   .00   .00   .00   .00   .00
0 12    .00   .00   .00   .00   .00   .00
0 13    .00   .00   .00   .00   .00   .00
0 14    .00   .00   .00   .00   .00   .00
0 15    .00   .00   .00   .00   .00   .00
0 16    .00   .00   .00   .00   .00   .00
0 17    .00   .00   .00   .00   .00   .00
0 18    .00   .00   .00   .00   .00   .00
0 19    .00   .00   .00   .00   .00   .00
0 20    .00   .00   .00   .00   .00   .00
0 21    .00   .00   .00   .00   .00   .00
0 22    .00   .00   .00   .00   .00   .00
0 23    .00   .00   .00   .00   .00   .00
0 24    .00   .00   .00   .00   .00   .00
0 25    .00   .00   .00   .00   .00   .00
0 26    .00   .00   .00   .00   .00   .00
0


          TIME SUMMARY AT END OF TIME STEP 11 IN STRESS PERIOD  1
                               SECONDS        MINUTES         HOURS          DAYS           YEARS
                           ---------------------------------------------------------------------------
      TIME STEP LENGTH         19808.3        330.139        5.50232        .229263        .627688E-03
    STRESS PERIOD TIME         66157.1        1102.62        18.3770        .765707        .209639E-02
 TOTAL SIMULATION TIME         66157.1        1102.62        18.3770        .765707        .209639E-02
1
    10 ITERATIONS FOR TIME STEP  12 IN STRESS PERIOD  1
0MAXIMUM HEAD CHANGE FOR EACH ITERATION:
0 HEAD CHANGE LAYER,ROW,COL HEAD CHANGE LAYER,ROW,COL HEAD CHANGE LAYER,ROW,COL HEAD CHANGE LAYER,ROW,COL HEAD CHANGE LAYER,ROW,COL
 ------------------------------------------------------------------------------------------------------------------------------------
   -.1185     (  1,  5,  5)  -.1216     (  1,  3,  3)  -.2154     (  1,  1,  1)  -.3204E-01 (  1,  1, 11)   .1436E-01 (  1,  9,  8)
   -.1682E-02 (  1, 11, 11)  -.2774E-02 (  1,  1,  1)  -.1952E-02 (  1, 10, 12)  -.1071E-02 (  1,  3, 15)  -.3788E-03 (  1, 12, 12)
0
0HEAD/DRAWDOWN PRINTOUT FLAG = 1     TOTAL BUDGET PRINTOUT FLAG = 0     CELL-BY-CELL FLOW TERM FLAG = 0
 REUSING PREVIOUS VALUES OF IOFLG
1                  DRAWDOWN IN LAYER  1 AT END OF TIME STEP 12 IN STRESS PERIOD  1
           -----------------------------------------------------------------------

         1     2     3     4     5     6     7     8     9    10    11    12    13    14    15    16    17    18    19    20
 ................................................................................................................................
0  1   8.27  6.31  4.95  3.87  2.88  2.06  1.47  1.11   .96   .84   .74   .65   .57   .47   .38   .29   .20   .12   .06   .02
0  2   6.31  5.65  4.74  3.80  2.85  2.05  1.47  1.11   .96   .84   .74   .65   .57   .47   .38   .29   .20   .12   .06   .02
0  3   4.95  4.74  4.26  3.59  2.77  2.03  1.46  1.11   .96   .84   .74   .65   .57   .47   .38   .29   .20   .12   .06   .02
0  4   3.87  3.80  3.59  3.20  2.60  1.96  1.44  1.10   .96   .84   .74   .65   .57   .47   .38   .29   .20   .12   .06   .02
0  5   2.88  2.85  2.77  2.60  2.27  1.81  1.39  1.09   .95   .84   .74   .65   .57   .47   .38   .29   .20   .12   .06   .02
0  6   2.06  2.05  2.03  1.96  1.81  1.57  1.29  1.07   .94   .83   .73   .65   .56   .47   .38   .29   .20   .12   .06   .02
0  7   1.47  1.47  1.46  1.44  1.39  1.29  1.15  1.03   .92   .82   .73   .64   .56   .47   .38   .29   .20   .12   .06   .02
0  8   1.11  1.11  1.11  1.10  1.09  1.07  1.03   .97   .89   .80   .72   .64   .56   .47   .37   .29   .20   .12   .06   .02
0  9    .96   .96   .96   .96   .95   .94   .92   .89   .83   .77   .69   .62   .55   .46   .37   .29   .20   .12   .06   .02
0 10    .84   .84   .84   .84   .84   .83   .82   .80   .77   .72   .66   .60   .53   .45   .37   .28   .20   .12   .06   .02
0 11    .74   .74   .74   .74   .74   .73   .73   .72   .69   .66   .62   .57   .51   .44   .36   .28   .20   .12   .06   .02
0 12    .65   .65   .65   .65   .65   .65   .64   .64   .62   .60   .57   .53   .48   .42   .35   .27   .19   .12   .06   .02
0 13    .57   .57   .57   .57   .57   .56   .56   .56   .55   .53   .51   .48   .45   .40   .33   .26   .19   .12   .06   .02
0 14    .47   .47   .47   .47   .47   .47   .47   .47   .46   .45   .44   .42   .40   .36   .30   .25   .18   .11   .06   .02
0 15    .38   .38   .38   .38   .38   .38   .38   .38   .37   .37   .36   .35   .33   .30   .27   .22   .16   .11   .05   .02
0 16    .29   .29   .29   .29   .29   .29   .29   .29   .29   .28   .28   .27   .26   .25   .22   .19   .14   .10   .05   .02
0 17    .20   .20   .20   .20   .20   .20   .20   .20   .20   .20   .20   .19   .19   .18   .16   .14   .11   .08   .04   .02
0 18    .12   .12   .12   .12   .12   .12   .12   .12   .12   .12   .12   .12   .12   .11   .11   .10   .08   .06   .03   .01
0 19    .06   .06   .06   .06   .06   .06   .06   .06   .06   .06   .06   .06   .06   .06   .05   .05   .04   .03   .02   .01
0 20    .02   .02   .02   .02   .02   .02   .02   .02   .02   .02   .02   .02   .02   .02   .02   .02   .02   .01   .01   .00
0 21    .01   .01   .01   .01   .01   .01   .01   .01   .01   .01   .01   .01   .01   .01   .00   .00   .00   .00   .00   .00
0 22    .00   .00   .00   .00   .00   .00   .00   .00   .00   .00   .00   .00   .00   .00   .00   .00   .00   .00   .00   .00
0 23    .00   .00   .00   .00   .00   .00   .00   .00   .00   .00   .00   .00   .00   .00   .00   .00   .00   .00   .00   .00
0 24    .00   .00   .00   .00   .00   .00   .00   .00   .00   .00   .00   .00   .00   .00   .00   .00   .00   .00   .00   .00
0 25    .00   .00   .00   .00   .00   .00   .00   .00   .00   .00   .00   .00   .00   .00   .00   .00   .00   .00   .00   .00
0 26    .00   .00   .00   .00   .00   .00   .00   .00   .00   .00   .00   .00   .00   .00   .00   .00   .00   .00   .00   .00
1                  DRAWDOWN IN LAYER  1 AT END OF TIME STEP 12 IN STRESS PERIOD  1
           -----------------------------------------------------------------------

        21    22    23    24    25    26
 ............................................
0  1    .01   .00   .00   .00   .00   .00
0  2    .01   .00   .00   .00   .00   .00
0  3    .01   .00   .00   .00   .00   .00
0  4    .01   .00   .00   .00   .00   .00
0  5    .01   .00   .00   .00   .00   .00
0  6    .01   .00   .00   .00   .00   .00
0  7    .01   .00   .00   .00   .00   .00
0  8    .01   .00   .00   .00   .00   .00
0  9    .01   .00   .00   .00   .00   .00
0 10    .01   .00   .00   .00   .00   .00
0 11    .01   .00   .00   .00   .00   .00
0 12    .01   .00   .00   .00   .00   .00
0 13    .01   .00   .00   .00   .00   .00
0 14    .01   .00   .00   .00   .00   .00
0 15    .00   .00   .00   .00   .00   .00
0 16    .00   .00   .00   .00   .00   .00
0 17    .00   .00   .00   .00   .00   .00
0 18    .00   .00   .00   .00   .00   .00
0 19    .00   .00   .00   .00   .00   .00
0 20    .00   .00   .00   .00   .00   .00
0 21    .00   .00   .00   .00   .00   .00
0 22    .00   .00   .00   .00   .00   .00
0 23    .00   .00   .00   .00   .00   .00
0 24    .00   .00   .00   .00   .00   .00
0 25    .00   .00   .00   .00   .00   .00
0 26    .00   .00   .00   .00   .00   .00
0


          TIME SUMMARY AT END OF TIME STEP 12 IN STRESS PERIOD  1
                               SECONDS        MINUTES         HOURS          DAYS           YEARS
                           ---------------------------------------------------------------------------
      TIME STEP LENGTH         28009.0        466.817        7.78028        .324178        .887552E-03
    STRESS PERIOD TIME         94166.1        1569.44        26.1573        1.08989        .298394E-02
 TOTAL SIMULATION TIME         94166.1        1569.44        26.1573        1.08989        .298394E-02
1
    10 ITERATIONS FOR TIME STEP  13 IN STRESS PERIOD  1
0MAXIMUM HEAD CHANGE FOR EACH ITERATION:
0 HEAD CHANGE LAYER,ROW,COL HEAD CHANGE LAYER,ROW,COL HEAD CHANGE LAYER,ROW,COL HEAD CHANGE LAYER,ROW,COL HEAD CHANGE LAYER,ROW,COL
 ------------------------------------------------------------------------------------------------------------------------------------
   -.1149     (  1,  6,  6)  -.1127     (  1,  3,  4)  -.2276     (  1,  1,  1)  -.3401E-01 (  1,  1, 11)   .1585E-01 (  1,  9,  9)
    .3083E-02 (  1,  9,  7)  -.3932E-02 (  1,  1,  1)  -.2764E-02 (  1,  1,  2)  -.1531E-02 (  1,  3,  1)  -.3421E-03 (  1, 14, 13)
0
0HEAD/DRAWDOWN PRINTOUT FLAG = 1     TOTAL BUDGET PRINTOUT FLAG = 0     CELL-BY-CELL FLOW TERM FLAG = 0
 REUSING PREVIOUS VALUES OF IOFLG
1                  DRAWDOWN IN LAYER  1 AT END OF TIME STEP 13 IN STRESS PERIOD  1
           -----------------------------------------------------------------------

         1     2     3     4     5     6     7     8     9    10    11    12    13    14    15    16    17    18    19    20
 ................................................................................................................................
0  1   8.63  6.66  5.30  4.22  3.21  2.35  1.69  1.24  1.02   .91   .80   .71   .63   .54   .44   .35   .25   .17   .09   .04
0  2   6.66  6.01  5.09  4.15  3.18  2.34  1.69  1.23  1.02   .91   .80   .71   .63   .54   .44   .35   .25   .17   .09   .04
0  3   5.30  5.09  4.61  3.93  3.10  2.31  1.68  1.23  1.02   .91   .80   .71   .63   .54   .44   .35   .25   .17   .09   .04
0  4   4.22  4.15  3.93  3.54  2.92  2.24  1.65  1.22  1.02   .91   .80   .71   .63   .54   .44   .35   .25   .17   .09   .04
0  5   3.21  3.18  3.10  2.92  2.57  2.08  1.59  1.21  1.02   .90   .80   .71   .63   .53   .44   .35   .25   .17   .09   .04
0  6   2.35  2.34  2.31  2.24  2.08  1.81  1.47  1.17  1.01   .90   .80   .71   .63   .53   .44   .35   .25   .17   .09   .04
0  7   1.69  1.69  1.68  1.65  1.59  1.47  1.29  1.11   .99   .89   .79   .71   .63   .53   .44   .35   .25   .17   .09   .04
0  8   1.24  1.23  1.23  1.22  1.21  1.17  1.11  1.03   .95   .87   .78   .70   .62   .53   .44   .34   .25   .17   .09   .04
0  9   1.02  1.02  1.02  1.02  1.02  1.01   .99   .95   .90   .83   .76   .69   .61   .52   .43   .34   .25   .17   .09   .04
0 10    .91   .91   .91   .91   .90   .90   .89   .87   .83   .78   .72   .66   .60   .52   .43   .34   .25   .17   .09   .04
0 11    .80   .80   .80   .80   .80   .80   .79   .78   .76   .72   .68   .63   .57   .50   .42   .33   .25   .17   .09   .04
0 12    .71   .71   .71   .71   .71   .71   .71   .70   .69   .66   .63   .59   .54   .48   .41   .33   .24   .16   .09   .04
0 13    .63   .63   .63   .63   .63   .63   .63   .62   .61   .60   .57   .54   .51   .46   .39   .32   .24   .16   .09   .04
0 14    .54   .54   .54   .54   .54   .53   .53   .53   .52   .52   .50   .48   .46   .42   .36   .30   .23   .16   .09   .04
0 15    .44   .44   .44   .44   .44   .44   .44   .44   .43   .43   .42   .41   .39   .36   .32   .27   .21   .15   .08   .04
0 16    .35   .35   .35   .35   .35   .35   .35   .34   .34   .34   .33   .33   .32   .30   .27   .24   .19   .13   .08   .04
0 17    .25   .25   .25   .25   .25   .25   .25   .25   .25   .25   .25   .24   .24   .23   .21   .19   .16   .12   .07   .03
0 18    .17   .17   .17   .17   .17   .17   .17   .17   .17   .17   .17   .16   .16   .16   .15   .13   .12   .09   .06   .03
0 19    .09   .09   .09   .09   .09   .09   .09   .09   .09   .09   .09   .09   .09   .09   .08   .08   .07   .06   .04   .02
0 20    .04   .04   .04   .04   .04   .04   .04   .04   .04   .04   .04   .04   .04   .04   .04   .04   .03   .03   .02   .01
0 21    .01   .01   .01   .01   .01   .01   .01   .01   .01   .01   .01   .01   .01   .01   .01   .01   .01   .01   .01   .00
0 22    .00   .00   .00   .00   .00   .00   .00   .00   .00   .00   .00   .00   .00   .00   .00   .00   .00   .00   .00   .00
0 23    .00   .00   .00   .00   .00   .00   .00   .00   .00   .00   .00   .00   .00   .00   .00   .00   .00   .00   .00   .00
0 24    .00   .00   .00   .00   .00   .00   .00   .00   .00   .00   .00   .00   .00   .00   .00   .00   .00   .00   .00   .00
0 25    .00   .00   .00   .00   .00   .00   .00   .00   .00   .00   .00   .00   .00   .00   .00   .00   .00   .00   .00   .00
0 26    .00   .00   .00   .00   .00   .00   .00   .00   .00   .00   .00   .00   .00   .00   .00   .00   .00   .00   .00   .00
1                  DRAWDOWN IN LAYER  1 AT END OF TIME STEP 13 IN STRESS PERIOD  1
           -----------------------------------------------------------------------

        21    22    23    24    25    26
 ............................................
0  1    .01   .00   .00   .00   .00   .00
0  2    .01   .00   .00   .00   .00   .00
0  3    .01   .00   .00   .00   .00   .00
0  4    .01   .00   .00   .00   .00   .00
0  5    .01   .00   .00   .00   .00   .00
0  6    .01   .00   .00   .00   .00   .00
0  7    .01   .00   .00   .00   .00   .00
0  8    .01   .00   .00   .00   .00   .00
0  9    .01   .00   .00   .00   .00   .00
0 10    .01   .00   .00   .00   .00   .00
0 11    .01   .00   .00   .00   .00   .00
0 12    .01   .00   .00   .00   .00   .00
0 13    .01   .00   .00   .00   .00   .00
0 14    .01   .00   .00   .00   .00   .00
0 15    .01   .00   .00   .00   .00   .00
0 16    .01   .00   .00   .00   .00   .00
0 17    .01   .00   .00   .00   .00   .00
0 18    .01   .00   .00   .00   .00   .00
0 19    .01   .00   .00   .00   .00   .00
0 20    .00   .00   .00   .00   .00   .00
0 21    .00   .00   .00   .00   .00   .00
0 22    .00   .00   .00   .00   .00   .00
0 23    .00   .00   .00   .00   .00   .00
0 24    .00   .00   .00   .00   .00   .00
0 25    .00   .00   .00   .00   .00   .00
0 26    .00   .00   .00   .00   .00   .00
0


          TIME SUMMARY AT END OF TIME STEP 13 IN STRESS PERIOD  1
                               SECONDS        MINUTES         HOURS          DAYS           YEARS
                           ---------------------------------------------------------------------------
      TIME STEP LENGTH         39604.7        660.079        11.0013        .458388        .125500E-02
    STRESS PERIOD TIME         133771.        2229.51        37.1586        1.54827        .423894E-02
 TOTAL SIMULATION TIME         133771.        2229.51        37.1586        1.54827        .423894E-02
1
    10 ITERATIONS FOR TIME STEP  14 IN STRESS PERIOD  1
0MAXIMUM HEAD CHANGE FOR EACH ITERATION:
0 HEAD CHANGE LAYER,ROW,COL HEAD CHANGE LAYER,ROW,COL HEAD CHANGE LAYER,ROW,COL HEAD CHANGE LAYER,ROW,COL HEAD CHANGE LAYER,ROW,COL
 ------------------------------------------------------------------------------------------------------------------------------------
   -.1104     (  1,  6,  6)  -.1059     (  1,  5,  4)  -.2327     (  1,  1,  1)  -.3196E-01 (  1,  1, 12)  -.1485E-01 (  1, 16,  2)
   -.2286E-02 (  1,  4,  1)  -.5103E-02 (  1,  1,  1)  -.4026E-02 (  1,  1,  2)  -.2880E-02 (  1,  3,  1)   .3420E-03 (  1,  6,  1)
0
0HEAD/DRAWDOWN PRINTOUT FLAG = 1     TOTAL BUDGET PRINTOUT FLAG = 0     CELL-BY-CELL FLOW TERM FLAG = 0
0OUTPUT FLAGS FOR EACH LAYER:
          HEAD    DRAWDOWN  HEAD  DRAWDOWN
 LAYER  PRINTOUT  PRINTOUT  SAVE    SAVE
 -----------------------------------------
    1       0         1       0       1
1                  DRAWDOWN IN LAYER  1 AT END OF TIME STEP 14 IN STRESS PERIOD  1
           -----------------------------------------------------------------------

         1     2     3     4     5     6     7     8     9    10    11    12    13    14    15    16    17    18    19    20
 ................................................................................................................................
0  1   8.98  7.02  5.66  4.57  3.54  2.66  1.94  1.40  1.09   .97   .86   .77   .69   .60   .50   .40   .31   .22   .13   .07
0  2   7.02  6.36  5.44  4.49  3.52  2.65  1.94  1.40  1.09   .97   .86   .77   .69   .60   .50   .40   .31   .22   .13   .07
0  3   5.66  5.44  4.96  4.28  3.44  2.62  1.93  1.39  1.09   .97   .86   .77   .69   .60   .50   .40   .31   .22   .13   .07
0  4   4.57  4.49  4.28  3.88  3.25  2.54  1.90  1.39  1.09   .97   .86   .77   .69   .60   .50   .40   .31   .22   .13   .07
0  5   3.54  3.52  3.44  3.25  2.89  2.37  1.83  1.36  1.08   .97   .86   .77   .69   .59   .50   .40   .31   .22   .13   .07
0  6   2.66  2.65  2.62  2.54  2.37  2.07  1.69  1.31  1.07   .96   .86   .77   .69   .59   .50   .40   .31   .22   .13   .07
0  7   1.94  1.94  1.93  1.90  1.83  1.69  1.48  1.23  1.05   .95   .85   .77   .69   .59   .50   .40   .31   .22   .13   .07
0  8   1.40  1.40  1.39  1.39  1.36  1.31  1.23  1.11  1.01   .93   .84   .76   .68   .59   .49   .40   .31   .22   .13   .07
0  9   1.09  1.09  1.09  1.09  1.08  1.07  1.05  1.01   .96   .89   .82   .75   .67   .58   .49   .40   .31   .22   .13   .07
0 10    .97   .97   .97   .97   .97   .96   .95   .93   .89   .84   .78   .72   .66   .58   .49   .40   .30   .22   .13   .07
0 11    .86   .86   .86   .86   .86   .86   .85   .84   .82   .78   .74   .69   .63   .56   .48   .39   .30   .21   .13   .07
0 12    .77   .77   .77   .77   .77   .77   .77   .76   .75   .72   .69   .65   .60   .54   .46   .38   .30   .21   .13   .07
0 13    .69   .69   .69   .69   .69   .69   .69   .68   .67   .66   .63   .60   .57   .52   .45   .37   .29   .21   .13   .07
0 14    .60   .60   .60   .60   .60   .59   .59   .59   .58   .58   .56   .54   .52   .48   .42   .36   .28   .20   .13   .06
0 15    .50   .50   .50   .50   .50   .50   .50   .49   .49   .49   .48   .46   .45   .42   .38   .33   .27   .19   .12   .06
0 16    .40   .40   .40   .40   .40   .40   .40   .40   .40   .40   .39   .38   .37   .36   .33   .29   .24   .18   .12   .06
0 17    .31   .31   .31   .31   .31   .31   .31   .31   .31   .30   .30   .30   .29   .28   .26   .24   .20   .16   .10   .06
0 18    .22   .22   .22   .22   .22   .22   .22   .22   .22   .22   .21   .21   .21   .20   .19   .18   .16   .13   .09   .05
0 19    .13   .13   .13   .13   .13   .13   .13   .13   .13   .13   .13   .13   .13   .13   .12   .12   .10   .09   .06   .04
0 20    .07   .07   .07   .07   .07   .07   .07   .07   .07   .07   .07   .07   .07   .06   .06   .06   .06   .05   .04   .02
0 21    .02   .02   .02   .02   .02   .02   .02   .02   .02   .02   .02   .02   .02   .02   .02   .02   .02   .02   .01   .01
0 22    .01   .01   .01   .01   .01   .01   .01   .01   .01   .01   .01   .01   .01   .01   .01   .01   .01   .00   .00   .00
0 23    .00   .00   .00   .00   .00   .00   .00   .00   .00   .00   .00   .00   .00   .00   .00   .00   .00   .00   .00   .00
0 24    .00   .00   .00   .00   .00   .00   .00   .00   .00   .00   .00   .00   .00   .00   .00   .00   .00   .00   .00   .00
0 25    .00   .00   .00   .00   .00   .00   .00   .00   .00   .00   .00   .00   .00   .00   .00   .00   .00   .00   .00   .00
0 26    .00   .00   .00   .00   .00   .00   .00   .00   .00   .00   .00   .00   .00   .00   .00   .00   .00   .00   .00   .00
1                  DRAWDOWN IN LAYER  1 AT END OF TIME STEP 14 IN STRESS PERIOD  1
           -----------------------------------------------------------------------

        21    22    23    24    25    26
 ............................................
0  1    .02   .01   .00   .00   .00   .00
0  2    .02   .01   .00   .00   .00   .00
0  3    .02   .01   .00   .00   .00   .00
0  4    .02   .01   .00   .00   .00   .00
0  5    .02   .01   .00   .00   .00   .00
0  6    .02   .01   .00   .00   .00   .00
0  7    .02   .01   .00   .00   .00   .00
0  8    .02   .01   .00   .00   .00   .00
0  9    .02   .01   .00   .00   .00   .00
0 10    .02   .01   .00   .00   .00   .00
0 11    .02   .01   .00   .00   .00   .00
0 12    .02   .01   .00   .00   .00   .00
0 13    .02   .01   .00   .00   .00   .00
0 14    .02   .01   .00   .00   .00   .00
0 15    .02   .01   .00   .00   .00   .00
0 16    .02   .01   .00   .00   .00   .00
0 17    .02   .01   .00   .00   .00   .00
0 18    .02   .00   .00   .00   .00   .00
0 19    .01   .00   .00   .00   .00   .00
0 20    .01   .00   .00   .00   .00   .00
0 21    .00   .00   .00   .00   .00   .00
0 22    .00   .00   .00   .00   .00   .00
0 23    .00   .00   .00   .00   .00   .00
0 24    .00   .00   .00   .00   .00   .00
0 25    .00   .00   .00   .00   .00   .00
0 26    .00   .00   .00   .00   .00   .00
0DRAWDOWN WILL BE SAVED ON UNIT 30 AT END OF TIME STEP 14, STRESS PERIOD  1
0


          TIME SUMMARY AT END OF TIME STEP 14 IN STRESS PERIOD  1
                               SECONDS        MINUTES         HOURS          DAYS           YEARS
                           ---------------------------------------------------------------------------
      TIME STEP LENGTH         56001.1        933.351        15.5559        .648161        .177457E-02
    STRESS PERIOD TIME         189772.        3162.87        52.7144        2.19643        .601351E-02
 TOTAL SIMULATION TIME         189772.        3162.87        52.7144        2.19643        .601351E-02
1
    10 ITERATIONS FOR TIME STEP  15 IN STRESS PERIOD  1
0MAXIMUM HEAD CHANGE FOR EACH ITERATION:
0 HEAD CHANGE LAYER,ROW,COL HEAD CHANGE LAYER,ROW,COL HEAD CHANGE LAYER,ROW,COL HEAD CHANGE LAYER,ROW,COL HEAD CHANGE LAYER,ROW,COL
 ------------------------------------------------------------------------------------------------------------------------------------
   -.1059     (  1,  7,  7)  -.1014     (  1,  6,  4)  -.2312     (  1,  1,  1)  -.3394E-01 (  1,  1,  1)  -.1562E-01 (  1, 17,  4)
    .3000E-02 (  1, 10,  8)  -.5971E-02 (  1,  1,  1)  -.5110E-02 (  1,  1,  2)  -.4608E-02 (  1,  3,  1)   .6345E-03 (  1,  6,  1)
0
0HEAD/DRAWDOWN PRINTOUT FLAG = 1     TOTAL BUDGET PRINTOUT FLAG = 0     CELL-BY-CELL FLOW TERM FLAG = 0
0OUTPUT FLAGS FOR EACH LAYER:
          HEAD    DRAWDOWN  HEAD  DRAWDOWN
 LAYER  PRINTOUT  PRINTOUT  SAVE    SAVE
 -----------------------------------------
    1       0         1       0       0
1                  DRAWDOWN IN LAYER  1 AT END OF TIME STEP 15 IN STRESS PERIOD  1
           -----------------------------------------------------------------------

         1     2     3     4     5     6     7     8     9    10    11    12    13    14    15    16    17    18    19    20
 ................................................................................................................................
0  1   9.34  7.37  6.01  4.92  3.88  2.98  2.22  1.60  1.20  1.03   .93   .84   .75   .66   .56   .46   .37   .27   .18   .10
0  2   7.37  6.72  5.80  4.84  3.86  2.97  2.22  1.60  1.20  1.03   .93   .84   .75   .66   .56   .46   .37   .27   .18   .10
0  3   6.01  5.80  5.31  4.63  3.77  2.94  2.20  1.60  1.20  1.03   .93   .84   .75   .66   .56   .46   .37   .27   .18   .10
0  4   4.92  4.84  4.63  4.22  3.59  2.86  2.17  1.59  1.20  1.03   .93   .84   .75   .66   .56   .46   .37   .27   .18   .10
0  5   3.88  3.86  3.77  3.59  3.22  2.68  2.10  1.56  1.19  1.03   .93   .84   .75   .66   .56   .46   .37   .27   .18   .10
0  6   2.98  2.97  2.94  2.86  2.68  2.36  1.94  1.50  1.17  1.02   .92   .83   .75   .66   .56   .46   .36   .27   .18   .10
0  7   2.22  2.22  2.20  2.17  2.10  1.94  1.70  1.39  1.14  1.01   .92   .83   .75   .65   .56   .46   .36   .27   .18   .10
0  8   1.60  1.60  1.60  1.59  1.56  1.50  1.39  1.24  1.08   .99   .90   .82   .74   .65   .55   .46   .36   .27   .18   .10
0  9   1.20  1.20  1.20  1.20  1.19  1.17  1.14  1.08  1.02   .95   .88   .81   .73   .65   .55   .46   .36   .27   .18   .10
0 10   1.03  1.03  1.03  1.03  1.03  1.02  1.01   .99   .95   .90   .85   .78   .72   .64   .55   .46   .36   .27   .18   .10
0 11    .93   .93   .93   .93   .92   .92   .92   .90   .88   .85   .80   .75   .70   .62   .54   .45   .36   .27   .18   .10
0 12    .84   .84   .84   .84   .84   .83   .83   .82   .81   .78   .75   .71   .67   .60   .53   .44   .35   .26   .17   .10
0 13    .75   .75   .75   .75   .75   .75   .75   .74   .73   .72   .70   .67   .63   .58   .51   .43   .35   .26   .17   .10
0 14    .66   .66   .66   .66   .66   .66   .65   .65   .65   .64   .62   .60   .58   .54   .48   .41   .34   .25   .17   .10
0 15    .56   .56   .56   .56   .56   .56   .56   .55   .55   .55   .54   .53   .51   .48   .44   .39   .32   .24   .17   .09
0 16    .46   .46   .46   .46   .46   .46   .46   .46   .46   .46   .45   .44   .43   .41   .39   .35   .29   .23   .16   .09
0 17    .37   .37   .37   .37   .37   .37   .36   .36   .36   .36   .36   .35   .35   .34   .32   .29   .26   .20   .14   .09
0 18    .27   .27   .27   .27   .27   .27   .27   .27   .27   .27   .27   .26   .26   .25   .24   .23   .20   .17   .12   .08
0 19    .18   .18   .18   .18   .18   .18   .18   .18   .18   .18   .18   .17   .17   .17   .17   .16   .14   .12   .09   .06
0 20    .10   .10   .10   .10   .10   .10   .10   .10   .10   .10   .10   .10   .10   .10   .09   .09   .09   .08   .06   .04
0 21    .04   .04   .04   .04   .04   .04   .04   .04   .04   .04   .04   .04   .04   .04   .04   .04   .04   .03   .03   .02
0 22    .01   .01   .01   .01   .01   .01   .01   .01   .01   .01   .01   .01   .01   .01   .01   .01   .01   .01   .01   .01
0 23    .00   .00   .00   .00   .00   .00   .00   .00   .00   .00   .00   .00   .00   .00   .00   .00   .00   .00   .00   .00
0 24    .00   .00   .00   .00   .00   .00   .00   .00   .00   .00   .00   .00   .00   .00   .00   .00   .00   .00   .00   .00
0 25    .00   .00   .00   .00   .00   .00   .00   .00   .00   .00   .00   .00   .00   .00   .00   .00   .00   .00   .00   .00
0 26    .00   .00   .00   .00   .00   .00   .00   .00   .00   .00   .00   .00   .00   .00   .00   .00   .00   .00   .00   .00
1                  DRAWDOWN IN LAYER  1 AT END OF TIME STEP 15 IN STRESS PERIOD  1
           -----------------------------------------------------------------------

        21    22    23    24    25    26
 ............................................
0  1    .04   .01   .00   .00   .00   .00
0  2    .04   .01   .00   .00   .00   .00
0  3    .04   .01   .00   .00   .00   .00
0  4    .04   .01   .00   .00   .00   .00
0  5    .04   .01   .00   .00   .00   .00
0  6    .04   .01   .00   .00   .00   .00
0  7    .04   .01   .00   .00   .00   .00
0  8    .04   .01   .00   .00   .00   .00
0  9    .04   .01   .00   .00   .00   .00
0 10    .04   .01   .00   .00   .00   .00
0 11    .04   .01   .00   .00   .00   .00
0 12    .04   .01   .00   .00   .00   .00
0 13    .04   .01   .00   .00   .00   .00
0 14    .04   .01   .00   .00   .00   .00
0 15    .04   .01   .00   .00   .00   .00
0 16    .04   .01   .00   .00   .00   .00
0 17    .04   .01   .00   .00   .00   .00
0 18    .03   .01   .00   .00   .00   .00
0 19    .03   .01   .00   .00   .00   .00
0 20    .02   .01   .00   .00   .00   .00
0 21    .01   .00   .00   .00   .00   .00
0 22    .00   .00   .00   .00   .00   .00
0 23    .00   .00   .00   .00   .00   .00
0 24    .00   .00   .00   .00   .00   .00
0 25    .00   .00   .00   .00   .00   .00
0 26    .00   .00   .00   .00   .00   .00
0


          TIME SUMMARY AT END OF TIME STEP 15 IN STRESS PERIOD  1
                               SECONDS        MINUTES         HOURS          DAYS           YEARS
                           ---------------------------------------------------------------------------
      TIME STEP LENGTH         79185.5        1319.76        21.9960        .916499        .250924E-02
    STRESS PERIOD TIME         268957.        4482.62        74.7104        3.11293        .852275E-02
 TOTAL SIMULATION TIME         268957.        4482.62        74.7104        3.11293        .852275E-02
1
    10 ITERATIONS FOR TIME STEP  16 IN STRESS PERIOD  1
0MAXIMUM HEAD CHANGE FOR EACH ITERATION:
0 HEAD CHANGE LAYER,ROW,COL HEAD CHANGE LAYER,ROW,COL HEAD CHANGE LAYER,ROW,COL HEAD CHANGE LAYER,ROW,COL HEAD CHANGE LAYER,ROW,COL
 ------------------------------------------------------------------------------------------------------------------------------------
   -.1038     (  1,  7,  7)  -.9869E-01 (  1,  6,  5)  -.2235     (  1,  1,  1)  -.4557E-01 (  1,  1,  1)  -.1899E-01 (  1,  6,  1)
   -.2851E-02 (  1,  1,  5)  -.6537E-02 (  1,  1,  1)  -.5991E-02 (  1,  1,  2)  -.6669E-02 (  1,  3,  1)   .9944E-03 (  1,  6,  2)
0
0HEAD/DRAWDOWN PRINTOUT FLAG = 1     TOTAL BUDGET PRINTOUT FLAG = 0     CELL-BY-CELL FLOW TERM FLAG = 0
 REUSING PREVIOUS VALUES OF IOFLG
1                  DRAWDOWN IN LAYER  1 AT END OF TIME STEP 16 IN STRESS PERIOD  1
           -----------------------------------------------------------------------

         1     2     3     4     5     6     7     8     9    10    11    12    13    14    15    16    17    18    19    20
 ................................................................................................................................
0  1   9.69  7.73  6.36  5.26  4.22  3.31  2.52  1.84  1.36  1.11  1.00   .90   .82   .72   .62   .52   .42   .32   .23   .14
0  2   7.73  7.07  6.15  5.19  4.20  3.30  2.51  1.84  1.36  1.11   .99   .90   .82   .72   .62   .52   .42   .32   .23   .14
0  3   6.36  6.15  5.66  4.97  4.12  3.26  2.50  1.83  1.35  1.11   .99   .90   .82   .72   .62   .52   .42   .32   .23   .14
0  4   5.26  5.19  4.97  4.57  3.93  3.18  2.47  1.82  1.35  1.11   .99   .90   .81   .72   .62   .52   .42   .32   .23   .14
0  5   4.22  4.20  4.12  3.93  3.55  3.00  2.39  1.79  1.34  1.10   .99   .90   .81   .72   .62   .52   .42   .32   .23   .14
0  6   3.31  3.30  3.26  3.18  3.00  2.66  2.22  1.72  1.32  1.10   .99   .90   .81   .72   .62   .52   .42   .32   .23   .14
0  7   2.52  2.51  2.50  2.47  2.39  2.22  1.95  1.59  1.27  1.08   .98   .90   .81   .72   .62   .52   .42   .32   .23   .14
0  8   1.84  1.84  1.83  1.82  1.79  1.72  1.59  1.40  1.19  1.05   .97   .89   .81   .71   .62   .52   .42   .32   .23   .14
0  9   1.36  1.36  1.35  1.35  1.34  1.32  1.27  1.19  1.09  1.01   .94   .87   .80   .71   .61   .52   .42   .32   .23   .14
0 10   1.11  1.11  1.11  1.11  1.10  1.10  1.08  1.05  1.01   .97   .91   .85   .78   .70   .61   .52   .42   .32   .23   .14
0 11   1.00   .99   .99   .99   .99   .99   .98   .97   .94   .91   .87   .82   .76   .68   .60   .51   .42   .32   .22   .14
0 12    .90   .90   .90   .90   .90   .90   .90   .89   .87   .85   .82   .78   .73   .66   .59   .50   .41   .32   .22   .14
0 13    .82   .82   .82   .81   .81   .81   .81   .81   .80   .78   .76   .73   .69   .64   .57   .49   .41   .32   .22   .14
0 14    .72   .72   .72   .72   .72   .72   .72   .71   .71   .70   .68   .66   .64   .60   .54   .47   .40   .31   .22   .14
0 15    .62   .62   .62   .62   .62   .62   .62   .62   .61   .61   .60   .59   .57   .54   .50   .45   .38   .30   .21   .13
0 16    .52   .52   .52   .52   .52   .52   .52   .52   .52   .52   .51   .50   .49   .47   .45   .40   .35   .28   .20   .13
0 17    .42   .42   .42   .42   .42   .42   .42   .42   .42   .42   .42   .41   .41   .40   .38   .35   .31   .26   .19   .12
0 18    .32   .32   .32   .32   .32   .32   .32   .32   .32   .32   .32   .32   .32   .31   .30   .28   .26   .22   .17   .11
0 19    .23   .23   .23   .23   .23   .23   .23   .23   .23   .23   .22   .22   .22   .22   .21   .20   .19   .17   .13   .09
0 20    .14   .14   .14   .14   .14   .14   .14   .14   .14   .14   .14   .14   .14   .14   .13   .13   .12   .11   .09   .07
0 21    .07   .07   .07   .07   .07   .07   .07   .07   .07   .07   .07   .07   .07   .07   .07   .07   .06   .06   .05   .04
0 22    .03   .03   .03   .03   .03   .03   .03   .03   .03   .03   .03   .03   .03   .03   .02   .02   .02   .02   .02   .02
0 23    .01   .01   .01   .01   .01   .01   .01   .01   .01   .01   .01   .01   .01   .01   .01   .01   .01   .01   .01   .00
0 24    .00   .00   .00   .00   .00   .00   .00   .00   .00   .00   .00   .00   .00   .00   .00   .00   .00   .00   .00   .00
0 25    .00   .00   .00   .00   .00   .00   .00   .00   .00   .00   .00   .00   .00   .00   .00   .00   .00   .00   .00   .00
0 26    .00   .00   .00   .00   .00   .00   .00   .00   .00   .00   .00   .00   .00   .00   .00   .00   .00   .00   .00   .00
1                  DRAWDOWN IN LAYER  1 AT END OF TIME STEP 16 IN STRESS PERIOD  1
           -----------------------------------------------------------------------

        21    22    23    24    25    26
 ............................................
0  1    .07   .03   .01   .00   .00   .00
0  2    .07   .03   .01   .00   .00   .00
0  3    .07   .03   .01   .00   .00   .00
0  4    .07   .03   .01   .00   .00   .00
0  5    .07   .03   .01   .00   .00   .00
0  6    .07   .03   .01   .00   .00   .00
0  7    .07   .03   .01   .00   .00   .00
0  8    .07   .03   .01   .00   .00   .00
0  9    .07   .03   .01   .00   .00   .00
0 10    .07   .03   .01   .00   .00   .00
0 11    .07   .03   .01   .00   .00   .00
0 12    .07   .03   .01   .00   .00   .00
0 13    .07   .03   .01   .00   .00   .00
0 14    .07   .03   .01   .00   .00   .00
0 15    .07   .02   .01   .00   .00   .00
0 16    .07   .02   .01   .00   .00   .00
0 17    .06   .02   .01   .00   .00   .00
0 18    .06   .02   .01   .00   .00   .00
0 19    .05   .02   .01   .00   .00   .00
0 20    .04   .02   .00   .00   .00   .00
0 21    .02   .01   .00   .00   .00   .00
0 22    .01   .01   .00   .00   .00   .00
0 23    .00   .00   .00   .00   .00   .00
0 24    .00   .00   .00   .00   .00   .00
0 25    .00   .00   .00   .00   .00   .00
0 26    .00   .00   .00   .00   .00   .00
0


          TIME SUMMARY AT END OF TIME STEP 16 IN STRESS PERIOD  1
                               SECONDS        MINUTES         HOURS          DAYS           YEARS
                           ---------------------------------------------------------------------------
      TIME STEP LENGTH         111968.        1866.14        31.1023        1.29593        .354806E-02
    STRESS PERIOD TIME         380926.        6348.76        105.813        4.40886        .120708E-01
 TOTAL SIMULATION TIME         380926.        6348.76        105.813        4.40886        .120708E-01
1
    11 ITERATIONS FOR TIME STEP  17 IN STRESS PERIOD  1
0MAXIMUM HEAD CHANGE FOR EACH ITERATION:
0 HEAD CHANGE LAYER,ROW,COL HEAD CHANGE LAYER,ROW,COL HEAD CHANGE LAYER,ROW,COL HEAD CHANGE LAYER,ROW,COL HEAD CHANGE LAYER,ROW,COL
 ------------------------------------------------------------------------------------------------------------------------------------
   -.9988E-01 (  1,  7,  8)  -.9600E-01 (  1,  6,  6)  -.2113     (  1,  1,  1)  -.5761E-01 (  1,  1,  1)  -.2820E-01 (  1,  6,  1)
    .3221E-02 (  1,  8,  1)  -.6686E-02 (  1,  1,  1)  -.6338E-02 (  1,  1,  2)  -.8564E-02 (  1,  3,  1)   .1392E-02 (  1,  6,  3)
   -.1413E-03 (  1,  4,  1)
0
0HEAD/DRAWDOWN PRINTOUT FLAG = 1     TOTAL BUDGET PRINTOUT FLAG = 0     CELL-BY-CELL FLOW TERM FLAG = 0
 REUSING PREVIOUS VALUES OF IOFLG
1                  DRAWDOWN IN LAYER  1 AT END OF TIME STEP 17 IN STRESS PERIOD  1
           -----------------------------------------------------------------------

         1     2     3     4     5     6     7     8     9    10    11    12    13    14    15    16    17    18    19    20
 ................................................................................................................................
0  1  10.04  8.08  6.71  5.61  4.57  3.64  2.83  2.10  1.55  1.22  1.05   .96   .87   .78   .68   .58   .48   .38   .28   .18
0  2   8.08  7.42  6.50  5.54  4.54  3.63  2.82  2.10  1.55  1.22  1.05   .96   .87   .78   .68   .58   .48   .38   .28   .18
0  3   6.71  6.50  6.01  5.32  4.46  3.60  2.81  2.10  1.55  1.22  1.05   .96   .87   .78   .68   .58   .48   .38   .28   .18
0  4   5.61  5.54  5.32  4.92  4.27  3.51  2.78  2.09  1.54  1.22  1.05   .96   .87   .78   .68   .58   .48   .38   .28   .18
0  5   4.57  4.54  4.46  4.27  3.89  3.33  2.69  2.05  1.53  1.22  1.05   .96   .87   .78   .68   .58   .48   .38   .28   .18
0  6   3.64  3.63  3.60  3.51  3.33  2.98  2.51  1.97  1.50  1.21  1.04   .96   .87   .78   .68   .58   .48   .38   .28   .18
0  7   2.83  2.82  2.81  2.78  2.69  2.51  2.22  1.83  1.44  1.19  1.04   .95   .87   .78   .68   .58   .48   .38   .28   .18
0  8   2.11  2.10  2.10  2.09  2.05  1.97  1.83  1.60  1.34  1.14  1.03   .94   .86   .77   .68   .58   .48   .38   .28   .18
0  9   1.55  1.55  1.55  1.54  1.53  1.50  1.44  1.34  1.20  1.08  1.00   .93   .86   .77   .67   .58   .48   .38   .28   .18
0 10   1.22  1.22  1.22  1.22  1.22  1.21  1.19  1.14  1.08  1.02   .97   .91   .84   .76   .67   .58   .48   .38   .28   .18
0 11   1.05  1.05  1.05  1.05  1.05  1.04  1.04  1.03  1.00   .97   .92   .87   .82   .74   .66   .57   .48   .38   .28   .18
0 12    .96   .96   .96   .96   .96   .96   .95   .94   .93   .91   .87   .84   .79   .72   .65   .56   .47   .37   .28   .18
0 13    .87   .87   .87   .87   .87   .87   .87   .86   .86   .84   .82   .79   .75   .70   .63   .55   .46   .37   .27   .18
0 14    .78   .78   .78   .78   .78   .78   .78   .77   .77   .76   .74   .72   .70   .66   .60   .53   .45   .36   .27   .18
0 15    .68   .68   .68   .68   .68   .68   .68   .68   .67   .67   .66   .65   .63   .60   .56   .50   .43   .35   .26   .18
0 16    .58   .58   .58   .58   .58   .58   .58   .58   .58   .58   .57   .56   .55   .53   .50   .46   .41   .34   .26   .17
0 17    .48   .48   .48   .48   .48   .48   .48   .48   .48   .48   .48   .47   .46   .45   .43   .41   .37   .31   .24   .17
0 18    .38   .38   .38   .38   .38   .38   .38   .38   .38   .38   .38   .37   .37   .36   .35   .34   .31   .27   .21   .15
0 19    .28   .28   .28   .28   .28   .28   .28   .28   .28   .28   .28   .28   .27   .27   .26   .26   .24   .21   .18   .13
0 20    .18   .18   .18   .18   .18   .18   .18   .18   .18   .18   .18   .18   .18   .18   .18   .17   .17   .15   .13   .10
0 21    .10   .10   .10   .10   .10   .10   .10   .10   .10   .10   .10   .10   .10   .10   .10   .10   .09   .09   .08   .06
0 22    .04   .04   .04   .04   .04   .04   .04   .04   .04   .04   .04   .04   .04   .04   .04   .04   .04   .04   .04   .03
0 23    .02   .02   .02   .02   .02   .02   .02   .02   .02   .02   .02   .02   .02   .02   .02   .02   .01   .01   .01   .01
0 24    .00   .00   .00   .00   .00   .00   .00   .00   .00   .00   .00   .00   .00   .00   .00   .00   .00   .00   .00   .00
0 25    .00   .00   .00   .00   .00   .00   .00   .00   .00   .00   .00   .00   .00   .00   .00   .00   .00   .00   .00   .00
0 26    .00   .00   .00   .00   .00   .00   .00   .00   .00   .00   .00   .00   .00   .00   .00   .00   .00   .00   .00   .00
1                  DRAWDOWN IN LAYER  1 AT END OF TIME STEP 17 IN STRESS PERIOD  1
           -----------------------------------------------------------------------

        21    22    23    24    25    26
 ............................................
0  1    .10   .04   .02   .00   .00   .00
0  2    .10   .04   .02   .00   .00   .00
0  3    .10   .04   .02   .00   .00   .00
0  4    .10   .04   .02   .00   .00   .00
0  5    .10   .04   .02   .00   .00   .00
0  6    .10   .04   .02   .00   .00   .00
0  7    .10   .04   .02   .00   .00   .00
0  8    .10   .04   .02   .00   .00   .00
0  9    .10   .04   .02   .00   .00   .00
0 10    .10   .04   .02   .00   .00   .00
0 11    .10   .04   .02   .00   .00   .00
0 12    .10   .04   .02   .00   .00   .00
0 13    .10   .04   .02   .00   .00   .00
0 14    .10   .04   .02   .00   .00   .00
0 15    .10   .04   .02   .00   .00   .00
0 16    .10   .04   .02   .00   .00   .00
0 17    .09   .04   .01   .00   .00   .00
0 18    .09   .04   .01   .00   .00   .00
0 19    .08   .04   .01   .00   .00   .00
0 20    .06   .03   .01   .00   .00   .00
0 21    .04   .02   .01   .00   .00   .00
0 22    .02   .01   .01   .00   .00   .00
0 23    .01   .01   .00   .00   .00   .00
0 24    .00   .00   .00   .00   .00   .00
0 25    .00   .00   .00   .00   .00   .00
0 26    .00   .00   .00   .00   .00   .00
0


          TIME SUMMARY AT END OF TIME STEP 17 IN STRESS PERIOD  1
                               SECONDS        MINUTES         HOURS          DAYS           YEARS
                           ---------------------------------------------------------------------------
      TIME STEP LENGTH         158323.        2638.72        43.9787        1.83244        .501696E-02
    STRESS PERIOD TIME         539249.        8987.48        149.791        6.24131        .170878E-01
 TOTAL SIMULATION TIME         539249.        8987.48        149.791        6.24131        .170878E-01
1
    11 ITERATIONS FOR TIME STEP  18 IN STRESS PERIOD  1
0MAXIMUM HEAD CHANGE FOR EACH ITERATION:
0 HEAD CHANGE LAYER,ROW,COL HEAD CHANGE LAYER,ROW,COL HEAD CHANGE LAYER,ROW,COL HEAD CHANGE LAYER,ROW,COL HEAD CHANGE LAYER,ROW,COL
 ------------------------------------------------------------------------------------------------------------------------------------
   -.9794E-01 (  1,  8,  8)  -.9296E-01 (  1,  7,  6)  -.1956     (  1,  1,  1)  -.6930E-01 (  1,  1,  1)  -.3998E-01 (  1,  6,  1)
    .4151E-02 (  1,  9,  1)  -.6453E-02 (  1,  1,  1)  -.6000E-02 (  1,  1,  2)  -.9685E-02 (  1,  3,  1)   .1684E-02 (  1,  6,  4)
   -.1449E-03 (  1,  4,  1)
0
0HEAD/DRAWDOWN PRINTOUT FLAG = 1     TOTAL BUDGET PRINTOUT FLAG = 0     CELL-BY-CELL FLOW TERM FLAG = 0
0OUTPUT FLAGS FOR EACH LAYER:
          HEAD    DRAWDOWN  HEAD  DRAWDOWN
 LAYER  PRINTOUT  PRINTOUT  SAVE    SAVE
 -----------------------------------------
    1       0         1       0       1
1                  DRAWDOWN IN LAYER  1 AT END OF TIME STEP 18 IN STRESS PERIOD  1
           -----------------------------------------------------------------------

         1     2     3     4     5     6     7     8     9    10    11    12    13    14    15    16    17    18    19    20
 ................................................................................................................................
0  1  10.39  8.43  7.06  5.96  4.91  3.98  3.15  2.39  1.78  1.38  1.14  1.02   .94   .84   .74   .64   .54   .44   .33   .23
0  2   8.43  7.77  6.85  5.89  4.89  3.97  3.14  2.39  1.78  1.38  1.14  1.02   .94   .84   .74   .64   .54   .44   .33   .23
0  3   7.06  6.85  6.36  5.67  4.80  3.93  3.13  2.38  1.77  1.38  1.14  1.02   .94   .84   .74   .64   .54   .44   .33   .23
0  4   5.96  5.89  5.67  5.26  4.61  3.85  3.09  2.37  1.77  1.38  1.14  1.02   .94   .84   .74   .64   .54   .44   .33   .23
0  5   4.91  4.89  4.80  4.61  4.23  3.66  3.01  2.33  1.76  1.37  1.14  1.02   .94   .84   .74   .64   .54   .44   .33   .23
0  6   3.98  3.97  3.93  3.85  3.66  3.31  2.82  2.25  1.72  1.36  1.13  1.02   .93   .84   .74   .64   .54   .44   .33   .23
0  7   3.15  3.14  3.13  3.09  3.01  2.82  2.52  2.09  1.65  1.33  1.12  1.02   .93   .84   .74   .64   .54   .44   .33   .23
0  8   2.39  2.39  2.38  2.37  2.33  2.25  2.09  1.84  1.53  1.28  1.10  1.01   .93   .84   .74   .64   .54   .44   .33   .23
0  9   1.78  1.78  1.77  1.77  1.76  1.72  1.65  1.53  1.36  1.19  1.07   .99   .92   .83   .73   .64   .54   .44   .33   .23
0 10   1.38  1.38  1.38  1.38  1.37  1.36  1.33  1.28  1.19  1.10  1.03   .97   .90   .82   .73   .64   .54   .44   .33   .23
0 11   1.14  1.14  1.14  1.14  1.14  1.13  1.12  1.10  1.07  1.03   .99   .94   .88   .81   .72   .63   .54   .44   .33   .23
0 12   1.02  1.02  1.02  1.02  1.02  1.02  1.02  1.01   .99   .97   .94   .90   .85   .79   .71   .62   .53   .43   .33   .23
0 13    .94   .94   .94   .94   .94   .93   .93   .93   .92   .90   .88   .85   .81   .76   .69   .61   .52   .43   .33   .23
0 14    .84   .84   .84   .84   .84   .84   .84   .84   .83   .82   .81   .79   .76   .72   .66   .59   .51   .42   .32   .23
0 15    .74   .74   .74   .74   .74   .74   .74   .74   .73   .73   .72   .71   .69   .66   .62   .56   .49   .41   .32   .23
0 16    .64   .64   .64   .64   .64   .64   .64   .64   .64   .64   .63   .62   .61   .59   .56   .52   .47   .39   .31   .22
0 17    .54   .54   .54   .54   .54   .54   .54   .54   .54   .54   .54   .53   .52   .51   .49   .47   .42   .37   .29   .21
0 18    .44   .44   .44   .44   .44   .44   .44   .44   .44   .44   .44   .43   .43   .42   .41   .39   .37   .32   .27   .20
0 19    .33   .33   .33   .33   .33   .33   .33   .33   .33   .33   .33   .33   .33   .32   .32   .31   .29   .27   .23   .17
0 20    .23   .23   .23   .23   .23   .23   .23   .23   .23   .23   .23   .23   .23   .23   .23   .22   .21   .20   .17   .14
0 21    .14   .14   .14   .14   .14   .14   .14   .14   .14   .14   .14   .14   .14   .14   .14   .14   .13   .13   .11   .10
0 22    .07   .07   .07   .07   .07   .07   .07   .07   .07   .07   .07   .07   .07   .07   .07   .07   .07   .07   .06   .05
0 23    .03   .03   .03   .03   .03   .03   .03   .03   .03   .03   .03   .03   .03   .03   .03   .03   .03   .03   .03   .02
0 24    .01   .01   .01   .01   .01   .01   .01   .01   .01   .01   .01   .01   .01   .01   .01   .01   .01   .01   .01   .01
0 25    .00   .00   .00   .00   .00   .00   .00   .00   .00   .00   .00   .00   .00   .00   .00   .00   .00   .00   .00   .00
0 26    .00   .00   .00   .00   .00   .00   .00   .00   .00   .00   .00   .00   .00   .00   .00   .00   .00   .00   .00   .00
1                  DRAWDOWN IN LAYER  1 AT END OF TIME STEP 18 IN STRESS PERIOD  1
           -----------------------------------------------------------------------

        21    22    23    24    25    26
 ............................................
0  1    .14   .07   .03   .01   .00   .00
0  2    .14   .07   .03   .01   .00   .00
0  3    .14   .07   .03   .01   .00   .00
0  4    .14   .07   .03   .01   .00   .00
0  5    .14   .07   .03   .01   .00   .00
0  6    .14   .07   .03   .01   .00   .00
0  7    .14   .07   .03   .01   .00   .00
0  8    .14   .07   .03   .01   .00   .00
0  9    .14   .07   .03   .01   .00   .00
0 10    .14   .07   .03   .01   .00   .00
0 11    .14   .07   .03   .01   .00   .00
0 12    .14   .07   .03   .01   .00   .00
0 13    .14   .07   .03   .01   .00   .00
0 14    .14   .07   .03   .01   .00   .00
0 15    .14   .07   .03   .01   .00   .00
0 16    .14   .07   .03   .01   .00   .00
0 17    .13   .07   .03   .01   .00   .00
0 18    .13   .07   .03   .01   .00   .00
0 19    .11   .06   .03   .01   .00   .00
0 20    .10   .05   .02   .01   .00   .00
0 21    .07   .04   .02   .01   .00   .00
0 22    .04   .03   .01   .00   .00   .00
0 23    .02   .01   .01   .00   .00   .00
0 24    .01   .00   .00   .00   .00   .00
0 25    .00   .00   .00   .00   .00   .00
0 26    .00   .00   .00   .00   .00   .00
0DRAWDOWN WILL BE SAVED ON UNIT 30 AT END OF TIME STEP 18, STRESS PERIOD  1
0


          TIME SUMMARY AT END OF TIME STEP 18 IN STRESS PERIOD  1
                               SECONDS        MINUTES         HOURS          DAYS           YEARS
                           ---------------------------------------------------------------------------
      TIME STEP LENGTH         223869.        3731.15        62.1859        2.59108        .709398E-02
    STRESS PERIOD TIME         763118.        12718.6        211.977        8.83239        .241818E-01
 TOTAL SIMULATION TIME         763118.        12718.6        211.977        8.83239        .241818E-01
1
    11 ITERATIONS FOR TIME STEP  19 IN STRESS PERIOD  1
0MAXIMUM HEAD CHANGE FOR EACH ITERATION:
0 HEAD CHANGE LAYER,ROW,COL HEAD CHANGE LAYER,ROW,COL HEAD CHANGE LAYER,ROW,COL HEAD CHANGE LAYER,ROW,COL HEAD CHANGE LAYER,ROW,COL
 ------------------------------------------------------------------------------------------------------------------------------------
   -.9091E-01 (  1,  8,  8)  -.8991E-01 (  1,  7,  7)  -.1780     (  1,  1,  1)  -.8044E-01 (  1,  1,  1)  -.5394E-01 (  1,  6,  1)
    .5303E-02 (  1,  9,  1)  -.5928E-02 (  1,  1,  1)  -.5076E-02 (  1,  1,  2)  -.9635E-02 (  1,  3,  1)   .1789E-02 (  1,  6,  4)
   -.1404E-03 (  1,  4,  1)
0
0HEAD/DRAWDOWN PRINTOUT FLAG = 1     TOTAL BUDGET PRINTOUT FLAG = 0     CELL-BY-CELL FLOW TERM FLAG = 0
0OUTPUT FLAGS FOR EACH LAYER:
          HEAD    DRAWDOWN  HEAD  DRAWDOWN
 LAYER  PRINTOUT  PRINTOUT  SAVE    SAVE
 -----------------------------------------
    1       0         1       0       0
1                  DRAWDOWN IN LAYER  1 AT END OF TIME STEP 19 IN STRESS PERIOD  1
           -----------------------------------------------------------------------

         1     2     3     4     5     6     7     8     9    10    11    12    13    14    15    16    17    18    19    20
 ................................................................................................................................
0  1  10.74  8.77  7.41  6.31  5.26  4.32  3.48  2.70  2.04  1.58  1.27  1.10  1.00   .91   .80   .71   .60   .50   .39   .29
0  2   8.77  8.12  7.19  6.24  5.23  4.31  3.47  2.69  2.03  1.58  1.27  1.10  1.00   .91   .80   .71   .60   .50   .39   .29
0  3   7.41  7.19  6.71  6.02  5.15  4.27  3.46  2.69  2.03  1.58  1.27  1.10  1.00   .91   .80   .71   .60   .50   .39   .29
0  4   6.31  6.24  6.02  5.61  4.96  4.19  3.42  2.67  2.03  1.58  1.27  1.10  1.00   .91   .80   .71   .60   .50   .39   .29
0  5   5.26  5.23  5.15  4.96  4.57  3.99  3.33  2.63  2.01  1.57  1.27  1.10  1.00   .90   .80   .71   .60   .50   .39   .29
0  6   4.32  4.31  4.27  4.19  3.99  3.64  3.14  2.55  1.97  1.55  1.26  1.09  1.00   .90   .80   .71   .60   .50   .39   .29
0  7   3.48  3.47  3.46  3.42  3.33  3.14  2.82  2.38  1.90  1.52  1.25  1.09  1.00   .90   .80   .71   .60   .50   .39   .29
0  8   2.70  2.69  2.69  2.67  2.63  2.55  2.38  2.11  1.76  1.45  1.22  1.08   .99   .90   .80   .70   .60   .50   .39   .29
0  9   2.04  2.03  2.03  2.03  2.01  1.97  1.90  1.76  1.55  1.34  1.17  1.06   .98   .89   .80   .70   .60   .50   .39   .29
0 10   1.58  1.58  1.58  1.58  1.57  1.55  1.52  1.45  1.34  1.22  1.11  1.03   .97   .88   .79   .70   .60   .50   .39   .29
0 11   1.27  1.27  1.27  1.27  1.27  1.26  1.25  1.22  1.17  1.11  1.05  1.00   .94   .87   .78   .69   .60   .50   .39   .29
0 12   1.10  1.10  1.10  1.10  1.10  1.09  1.09  1.08  1.06  1.03  1.00   .96   .91   .85   .77   .69   .59   .49   .39   .28
0 13   1.00  1.00  1.00  1.00  1.00  1.00  1.00   .99   .98   .97   .94   .91   .88   .82   .75   .67   .59   .49   .39   .28
0 14    .91   .91   .91   .91   .90   .90   .90   .90   .89   .88   .87   .85   .82   .78   .72   .66   .57   .48   .38   .28
0 15    .80   .80   .80   .80   .80   .80   .80   .80   .80   .79   .78   .77   .75   .72   .68   .63   .55   .47   .38   .28
0 16    .71   .71   .71   .71   .71   .71   .71   .70   .70   .70   .69   .69   .67   .66   .63   .58   .53   .45   .37   .27
0 17    .60   .60   .60   .60   .60   .60   .60   .60   .60   .60   .60   .59   .59   .57   .55   .53   .48   .42   .35   .26
0 18    .50   .50   .50   .50   .50   .50   .50   .50   .50   .50   .50   .49   .49   .48   .47   .45   .42   .38   .32   .25
0 19    .39   .39   .39   .39   .39   .39   .39   .39   .39   .39   .39   .39   .39   .38   .38   .37   .35   .32   .28   .22
0 20    .29   .29   .29   .29   .29   .29   .29   .29   .29   .29   .29   .28   .28   .28   .28   .27   .26   .25   .22   .18
0 21    .19   .19   .19   .19   .19   .19   .19   .19   .19   .19   .19   .19   .19   .19   .18   .18   .18   .17   .16   .13
0 22    .11   .11   .11   .11   .11   .11   .11   .11   .11   .11   .11   .11   .11   .10   .10   .10   .10   .10   .09   .08
0 23    .05   .05   .05   .05   .05   .05   .05   .05   .05   .05   .05   .05   .05   .05   .05   .05   .05   .05   .05   .04
0 24    .02   .02   .02   .02   .02   .02   .02   .02   .02   .02   .02   .02   .02   .02   .02   .02   .02   .02   .02   .01
0 25    .00   .00   .00   .00   .00   .00   .00   .00   .00   .00   .00   .00   .00   .00   .00   .00   .00   .00   .00   .00
0 26    .00   .00   .00   .00   .00   .00   .00   .00   .00   .00   .00   .00   .00   .00   .00   .00   .00   .00   .00   .00
1                  DRAWDOWN IN LAYER  1 AT END OF TIME STEP 19 IN STRESS PERIOD  1
           -----------------------------------------------------------------------

        21    22    23    24    25    26
 ............................................
0  1    .19   .11   .05   .02   .00   .00
0  2    .19   .11   .05   .02   .00   .00
0  3    .19   .11   .05   .02   .00   .00
0  4    .19   .11   .05   .02   .00   .00
0  5    .19   .11   .05   .02   .00   .00
0  6    .19   .11   .05   .02   .00   .00
0  7    .19   .11   .05   .02   .00   .00
0  8    .19   .11   .05   .02   .00   .00
0  9    .19   .11   .05   .02   .00   .00
0 10    .19   .11   .05   .02   .00   .00
0 11    .19   .11   .05   .02   .00   .00
0 12    .19   .11   .05   .02   .00   .00
0 13    .19   .11   .05   .02   .00   .00
0 14    .19   .10   .05   .02   .00   .00
0 15    .18   .10   .05   .02   .00   .00
0 16    .18   .10   .05   .02   .00   .00
0 17    .18   .10   .05   .02   .00   .00
0 18    .17   .10   .05   .02   .00   .00
0 19    .16   .09   .05   .02   .00   .00
0 20    .13   .08   .04   .01   .00   .00
0 21    .10   .07   .03   .01   .00   .00
0 22    .07   .04   .03   .01   .00   .00
0 23    .03   .03   .02   .01   .00   .00
0 24    .01   .01   .01   .00   .00   .00
0 25    .00   .00   .00   .00   .00   .00
0 26    .00   .00   .00   .00   .00   .00
0


          TIME SUMMARY AT END OF TIME STEP 19 IN STRESS PERIOD  1
                               SECONDS        MINUTES         HOURS          DAYS           YEARS
                           ---------------------------------------------------------------------------
      TIME STEP LENGTH         316551.        5275.85        87.9308        3.66378        .100309E-01
    STRESS PERIOD TIME         .107967E+07    17994.5        299.908        12.4962        .342126E-01
 TOTAL SIMULATION TIME         .107967E+07    17994.5        299.908        12.4962        .342126E-01
1
    11 ITERATIONS FOR TIME STEP  20 IN STRESS PERIOD  1
0MAXIMUM HEAD CHANGE FOR EACH ITERATION:
0 HEAD CHANGE LAYER,ROW,COL HEAD CHANGE LAYER,ROW,COL HEAD CHANGE LAYER,ROW,COL HEAD CHANGE LAYER,ROW,COL HEAD CHANGE LAYER,ROW,COL
 ------------------------------------------------------------------------------------------------------------------------------------
   -.8492E-01 (  1,  9,  9)  -.8718E-01 (  1,  8,  7)  -.1594     (  1,  1,  1)  -.9109E-01 (  1,  1,  1)  -.7012E-01 (  1,  5,  1)
    .6382E-02 (  1,  9,  1)  -.5159E-02 (  1,  1,  1)  -.3498E-02 (  1,  1,  1)  -.7576E-02 (  1,  3,  1)   .1581E-02 (  1,  6,  5)
   -.1355E-03 (  1, 14, 10)
0
0HEAD/DRAWDOWN PRINTOUT FLAG = 1     TOTAL BUDGET PRINTOUT FLAG = 0     CELL-BY-CELL FLOW TERM FLAG = 0
 REUSING PREVIOUS VALUES OF IOFLG
1                  DRAWDOWN IN LAYER  1 AT END OF TIME STEP 20 IN STRESS PERIOD  1
           -----------------------------------------------------------------------

         1     2     3     4     5     6     7     8     9    10    11    12    13    14    15    16    17    18    19    20
 ................................................................................................................................
0  1  11.09  9.12  7.76  6.66  5.60  4.66  3.81  3.01  2.32  1.81  1.44  1.21  1.06   .96   .86   .76   .66   .56   .45   .34
0  2   9.12  8.46  7.54  6.58  5.58  4.65  3.80  3.01  2.32  1.81  1.44  1.21  1.06   .96   .86   .76   .66   .56   .45   .34
0  3   7.76  7.54  7.06  6.36  5.49  4.61  3.79  3.00  2.31  1.81  1.44  1.21  1.06   .96   .86   .76   .66   .56   .45   .34
0  4   6.66  6.58  6.36  5.95  5.30  4.53  3.75  2.99  2.31  1.81  1.44  1.21  1.06   .96   .86   .76   .66   .56   .45   .34
0  5   5.60  5.58  5.49  5.30  4.91  4.33  3.66  2.95  2.29  1.80  1.44  1.21  1.06   .96   .86   .76   .66   .56   .45   .34
0  6   4.66  4.65  4.61  4.53  4.33  3.97  3.47  2.86  2.25  1.78  1.43  1.20  1.06   .96   .86   .76   .66   .56   .45   .34
0  7   3.81  3.80  3.79  3.75  3.66  3.47  3.14  2.68  2.17  1.74  1.41  1.20  1.06   .96   .86   .76   .66   .56   .45   .34
0  8   3.01  3.01  3.00  2.99  2.95  2.86  2.68  2.39  2.01  1.66  1.38  1.18  1.05   .96   .86   .76   .66   .56   .45   .34
0  9   2.32  2.32  2.31  2.31  2.29  2.25  2.17  2.01  1.78  1.53  1.31  1.15  1.04   .95   .86   .76   .66   .56   .45   .34
0 10   1.81  1.81  1.81  1.81  1.80  1.78  1.74  1.66  1.53  1.38  1.23  1.11  1.02   .94   .85   .76   .66   .56   .45   .34
0 11   1.44  1.44  1.44  1.44  1.44  1.43  1.41  1.38  1.31  1.23  1.14  1.06  1.00   .93   .84   .75   .66   .55   .45   .34
0 12   1.21  1.21  1.21  1.21  1.21  1.20  1.20  1.18  1.15  1.11  1.06  1.02   .97   .91   .83   .74   .65   .55   .44   .34
0 13   1.06  1.06  1.06  1.06  1.06  1.06  1.06  1.05  1.04  1.02  1.00   .97   .93   .88   .81   .73   .64   .55   .44   .34
0 14    .96   .96   .96   .96   .96   .96   .96   .96   .95   .94   .93   .91   .88   .84   .78   .71   .63   .54   .44   .34
0 15    .86   .86   .86   .86   .86   .86   .86   .86   .86   .85   .84   .83   .81   .78   .74   .68   .61   .53   .43   .33
0 16    .76   .76   .76   .76   .76   .76   .76   .76   .76   .76   .75   .74   .73   .71   .68   .64   .58   .51   .42   .33
0 17    .66   .66   .66   .66   .66   .66   .66   .66   .66   .66   .66   .65   .64   .63   .61   .58   .54   .48   .41   .32
0 18    .56   .56   .56   .56   .56   .56   .56   .56   .56   .56   .55   .55   .55   .54   .53   .51   .48   .44   .38   .30
0 19    .45   .45   .45   .45   .45   .45   .45   .45   .45   .45   .45   .44   .44   .44   .43   .42   .41   .38   .33   .27
0 20    .34   .34   .34   .34   .34   .34   .34   .34   .34   .34   .34   .34   .34   .34   .33   .33   .32   .30   .27   .23
0 21    .24   .24   .24   .24   .24   .24   .24   .24   .24   .24   .24   .24   .24   .23   .23   .23   .23   .22   .20   .18
0 22    .15   .15   .15   .15   .15   .15   .15   .15   .15   .15   .15   .15   .15   .14   .14   .14   .14   .14   .13   .12
0 23    .08   .08   .08   .08   .08   .08   .08   .08   .08   .08   .08   .08   .08   .08   .08   .08   .08   .08   .07   .07
0 24    .03   .03   .03   .03   .03   .03   .03   .03   .03   .03   .03   .03   .03   .03   .03   .03   .03   .03   .03   .03
0 25    .01   .01   .01   .01   .01   .01   .01   .01   .01   .01   .01   .01   .01   .01   .01   .01   .01   .01   .01   .01
0 26    .00   .00   .00   .00   .00   .00   .00   .00   .00   .00   .00   .00   .00   .00   .00   .00   .00   .00   .00   .00
1                  DRAWDOWN IN LAYER  1 AT END OF TIME STEP 20 IN STRESS PERIOD  1
           -----------------------------------------------------------------------

        21    22    23    24    25    26
 ............................................
0  1    .24   .15   .08   .03   .01   .00
0  2    .24   .15   .08   .03   .01   .00
0  3    .24   .15   .08   .03   .01   .00
0  4    .24   .15   .08   .03   .01   .00
0  5    .24   .15   .08   .03   .01   .00
0  6    .24   .15   .08   .03   .01   .00
0  7    .24   .15   .08   .03   .01   .00
0  8    .24   .15   .08   .03   .01   .00
0  9    .24   .15   .08   .03   .01   .00
0 10    .24   .15   .08   .03   .01   .00
0 11    .24   .15   .08   .03   .01   .00
0 12    .24   .15   .08   .03   .01   .00
0 13    .24   .15   .08   .03   .01   .00
0 14    .23   .14   .08   .03   .01   .00
0 15    .23   .14   .08   .03   .01   .00
0 16    .23   .14   .08   .03   .01   .00
0 17    .23   .14   .08   .03   .01   .00
0 18    .22   .14   .08   .03   .01   .00
0 19    .20   .13   .07   .03   .01   .00
0 20    .18   .12   .07   .03   .01   .00
0 21    .14   .10   .06   .03   .01   .00
0 22    .10   .07   .04   .02   .01   .00
0 23    .06   .04   .03   .01   .00   .00
0 24    .03   .02   .01   .01   .00   .00
0 25    .01   .01   .00   .00   .00   .00
0 26    .00   .00   .00   .00   .00   .00
0


          TIME SUMMARY AT END OF TIME STEP 20 IN STRESS PERIOD  1
                               SECONDS        MINUTES         HOURS          DAYS           YEARS
                           ---------------------------------------------------------------------------
      TIME STEP LENGTH         447603.        7460.05        124.334        5.18059        .141837E-01
    STRESS PERIOD TIME         .152727E+07    25454.5        424.242        17.6768        .483963E-01
 TOTAL SIMULATION TIME         .152727E+07    25454.5        424.242        17.6768        .483963E-01
1
    11 ITERATIONS FOR TIME STEP  21 IN STRESS PERIOD  1
0MAXIMUM HEAD CHANGE FOR EACH ITERATION:
0 HEAD CHANGE LAYER,ROW,COL HEAD CHANGE LAYER,ROW,COL HEAD CHANGE LAYER,ROW,COL HEAD CHANGE LAYER,ROW,COL HEAD CHANGE LAYER,ROW,COL
 ------------------------------------------------------------------------------------------------------------------------------------
   -.7808E-01 (  1,  9,  9)  -.8486E-01 (  1,  9,  7)  -.1405     (  1,  1,  1)  -.1011     (  1,  1,  1)  -.8904E-01 (  1,  5,  1)
    .7231E-02 (  1,  9,  1)   .6296E-02 (  1,  9,  2)   .4934E-02 (  1,  8,  4)  -.3361E-02 (  1,  4,  4)   .1014E-02 (  1,  6,  6)
   -.1459E-03 (  1, 14, 11)
0
0HEAD/DRAWDOWN PRINTOUT FLAG = 1     TOTAL BUDGET PRINTOUT FLAG = 1     CELL-BY-CELL FLOW TERM FLAG = 0
 REUSING PREVIOUS VALUES OF IOFLG
1                  DRAWDOWN IN LAYER  1 AT END OF TIME STEP 21 IN STRESS PERIOD  1
           -----------------------------------------------------------------------

         1     2     3     4     5     6     7     8     9    10    11    12    13    14    15    16    17    18    19    20
 ................................................................................................................................
0  1  11.44  9.47  8.10  7.00  5.95  5.00  4.15  3.34  2.62  2.07  1.65  1.36  1.16  1.03   .93   .83   .72   .62   .51   .40
0  2   9.47  8.81  7.89  6.93  5.93  4.99  4.14  3.33  2.62  2.07  1.65  1.36  1.16  1.03   .93   .83   .72   .62   .51   .40
0  3   8.10  7.89  7.40  6.71  5.84  4.96  4.13  3.33  2.61  2.07  1.65  1.36  1.16  1.03   .93   .83   .72   .62   .51   .40
0  4   7.00  6.93  6.71  6.30  5.65  4.87  4.09  3.31  2.61  2.07  1.65  1.36  1.16  1.03   .93   .83   .72   .62   .51   .40
0  5   5.95  5.93  5.84  5.65  5.26  4.68  4.00  3.27  2.59  2.06  1.65  1.36  1.16  1.03   .92   .83   .72   .62   .51   .40
0  6   5.00  4.99  4.96  4.87  4.68  4.31  3.80  3.18  2.55  2.04  1.64  1.36  1.16  1.03   .92   .83   .72   .62   .51   .40
0  7   4.15  4.14  4.13  4.09  4.00  3.80  3.47  3.00  2.46  1.99  1.62  1.35  1.15  1.02   .92   .83   .72   .62   .51   .40
0  8   3.34  3.33  3.33  3.31  3.27  3.18  3.00  2.70  2.29  1.91  1.57  1.33  1.14  1.02   .92   .83   .72   .62   .51   .40
0  9   2.62  2.62  2.61  2.61  2.59  2.55  2.46  2.29  2.04  1.76  1.50  1.29  1.13  1.02   .92   .82   .72   .62   .51   .40
0 10   2.07  2.07  2.07  2.07  2.06  2.04  1.99  1.91  1.76  1.58  1.39  1.23  1.10  1.01   .91   .82   .72   .62   .51   .40
0 11   1.65  1.65  1.65  1.65  1.65  1.64  1.62  1.57  1.50  1.39  1.27  1.16  1.07   .99   .90   .82   .72   .61   .51   .40
0 12   1.36  1.36  1.36  1.36  1.36  1.36  1.35  1.33  1.29  1.23  1.16  1.09  1.03   .97   .89   .81   .71   .61   .50   .40
0 13   1.16  1.16  1.16  1.16  1.16  1.16  1.15  1.14  1.13  1.10  1.07  1.03  1.00   .94   .87   .80   .71   .61   .50   .40
0 14   1.03  1.03  1.03  1.03  1.03  1.03  1.02  1.02  1.02  1.01   .99   .97   .94   .90   .85   .78   .69   .60   .50   .39
0 15    .93   .93   .93   .92   .92   .92   .92   .92   .92   .91   .90   .89   .87   .85   .80   .75   .68   .59   .49   .39
0 16    .83   .83   .83   .83   .83   .83   .83   .83   .82   .82   .82   .81   .80   .78   .75   .70   .65   .57   .48   .38
0 17    .72   .72   .72   .72   .72   .72   .72   .72   .72   .72   .72   .71   .71   .69   .68   .65   .60   .54   .46   .38
0 18    .62   .62   .62   .62   .62   .62   .62   .62   .62   .62   .61   .61   .61   .60   .59   .57   .54   .50   .44   .36
0 19    .51   .51   .51   .51   .51   .51   .51   .51   .51   .51   .51   .50   .50   .50   .49   .48   .46   .44   .39   .33
0 20    .40   .40   .40   .40   .40   .40   .40   .40   .40   .40   .40   .40   .40   .39   .39   .38   .38   .36   .33   .29
0 21    .29   .29   .29   .29   .29   .29   .29   .29   .29   .29   .29   .29   .29   .29   .29   .28   .28   .27   .25   .23
0 22    .19   .19   .19   .19   .19   .19   .19   .19   .19   .19   .19   .19   .19   .19   .19   .19   .19   .18   .17   .16
0 23    .11   .11   .11   .11   .11   .11   .11   .11   .11   .11   .11   .11   .11   .11   .11   .11   .11   .11   .11   .10
0 24    .05   .05   .05   .05   .05   .05   .05   .05   .05   .05   .05   .05   .05   .05   .05   .05   .05   .05   .05   .05
0 25    .02   .02   .02   .02   .02   .02   .02   .02   .02   .02   .02   .02   .02   .02   .02   .02   .02   .02   .02   .02
0 26    .00   .00   .00   .00   .00   .00   .00   .00   .00   .00   .00   .00   .00   .00   .00   .00   .00   .00   .00   .00
1                  DRAWDOWN IN LAYER  1 AT END OF TIME STEP 21 IN STRESS PERIOD  1
           -----------------------------------------------------------------------

        21    22    23    24    25    26
 ............................................
0  1    .29   .19   .11   .05   .02   .00
0  2    .29   .19   .11   .05   .02   .00
0  3    .29   .19   .11   .05   .02   .00
0  4    .29   .19   .11   .05   .02   .00
0  5    .29   .19   .11   .05   .02   .00
0  6    .29   .19   .11   .05   .02   .00
0  7    .29   .19   .11   .05   .02   .00
0  8    .29   .19   .11   .05   .02   .00
0  9    .29   .19   .11   .05   .02   .00
0 10    .29   .19   .11   .05   .02   .00
0 11    .29   .19   .11   .05   .02   .00
0 12    .29   .19   .11   .05   .02   .00
0 13    .29   .19   .11   .05   .02   .00
0 14    .29   .19   .11   .05   .02   .00
0 15    .29   .19   .11   .05   .02   .00
0 16    .28   .19   .11   .05   .02   .00
0 17    .28   .19   .11   .05   .02   .00
0 18    .27   .18   .11   .05   .02   .00
0 19    .25   .17   .11   .05   .02   .00
0 20    .23   .16   .10   .05   .02   .00
0 21    .19   .14   .09   .04   .02   .00
0 22    .14   .11   .07   .04   .01   .00
0 23    .09   .07   .05   .03   .01   .00
0 24    .04   .04   .03   .02   .01   .00
0 25    .02   .01   .01   .01   .00   .00
0 26    .00   .00   .00   .00   .00   .00
0


                              VOLUMETRIC BUDGET FOR ENTIRE MODEL AT END OF TIME STEP 21 IN STRESS PERIOD  1
                              -----------------------------------------------------------------------------
0                   CUMULATIVE VOLUMES      L**3                                     RATES FOR THIS TIME STEP      L**3/T
                    ------------------                                               ------------------------

                          IN:                                                                    IN:
                          ---                                                                    ---
                            STORAGE =    .21022E+06                                                STORAGE =    8406.2    
                      CONSTANT HEAD =    .00000                                              CONSTANT HEAD =    .00000    
                              WELLS =    .00000                                                      WELLS =    .00000    
0                          TOTAL IN =    .21022E+06                                               TOTAL IN =    8406.2    
0                        OUT:                                                                   OUT:
                         ----                                                                   ----
                            STORAGE =    .00000                                                    STORAGE =    .00000    
                      CONSTANT HEAD =    .00000                                              CONSTANT HEAD =    .00000    
                              WELLS =    .21024E+06                                                  WELLS =    8409.1    
0                         TOTAL OUT =    .21024E+06                                              TOTAL OUT =    8409.1    
0                          IN - OUT =   -23.281                                                   IN - OUT =   -2.8994    
0               PERCENT DISCREPANCY =                -.01                              PERCENT DISCREPANCY =                -.03



0


          TIME SUMMARY AT END OF TIME STEP 21 IN STRESS PERIOD  1
                               SECONDS        MINUTES         HOURS          DAYS           YEARS
                           ---------------------------------------------------------------------------
      TIME STEP LENGTH         632911.        10548.5        175.808        7.32535        .200557E-01
    STRESS PERIOD TIME         .216018E+07    36003.0        600.051        25.0021        .684521E-01
 TOTAL SIMULATION TIME         .216018E+07    36003.0        600.051        25.0021        .684521E-01
1
    10 ITERATIONS FOR TIME STEP  22 IN STRESS PERIOD  1
0MAXIMUM HEAD CHANGE FOR EACH ITERATION:
0 HEAD CHANGE LAYER,ROW,COL HEAD CHANGE LAYER,ROW,COL HEAD CHANGE LAYER,ROW,COL HEAD CHANGE LAYER,ROW,COL HEAD CHANGE LAYER,ROW,COL
 ------------------------------------------------------------------------------------------------------------------------------------
   -.6843E-01 (  1, 10,  9)  -.8296E-01 (  1, 10,  7)  -.1223     (  1,  1,  1)  -.1102     (  1,  1,  2)  -.1099     (  1,  5,  1)
    .7775E-02 (  1,  9,  1)   .7755E-02 (  1, 10,  4)   .7439E-02 (  1,  8,  5)   .4125E-02 (  1,  1,  1)   .6518E-03 (  1, 15, 15)
0
0HEAD/DRAWDOWN PRINTOUT FLAG = 1     TOTAL BUDGET PRINTOUT FLAG = 0     CELL-BY-CELL FLOW TERM FLAG = 0
 REUSING PREVIOUS VALUES OF IOFLG
1                  DRAWDOWN IN LAYER  1 AT END OF TIME STEP 22 IN STRESS PERIOD  1
           -----------------------------------------------------------------------

         1     2     3     4     5     6     7     8     9    10    11    12    13    14    15    16    17    18    19    20
 ................................................................................................................................
0  1  11.78  9.82  8.45  7.35  6.30  5.35  4.49  3.67  2.93  2.36  1.90  1.56  1.30  1.10   .99   .89   .79   .68   .57   .46
0  2   9.82  9.16  8.24  7.28  6.27  5.34  4.48  3.67  2.93  2.36  1.90  1.56  1.30  1.10   .99   .89   .79   .68   .57   .46
0  3   8.45  8.24  7.75  7.06  6.19  5.30  4.47  3.66  2.93  2.35  1.90  1.56  1.30  1.10   .99   .89   .79   .68   .57   .46
0  4   7.35  7.28  7.06  6.65  5.99  5.22  4.43  3.64  2.92  2.35  1.89  1.56  1.30  1.10   .99   .89   .79   .68   .57   .46
0  5   6.30  6.27  6.19  5.99  5.60  5.02  4.34  3.60  2.90  2.34  1.89  1.55  1.30  1.10   .99   .89   .79   .68   .57   .46
0  6   5.35  5.34  5.30  5.22  5.02  4.65  4.14  3.51  2.86  2.32  1.88  1.55  1.30  1.10   .99   .89   .79   .68   .57   .46
0  7   4.49  4.48  4.47  4.43  4.34  4.14  3.81  3.32  2.76  2.27  1.86  1.54  1.29  1.10   .99   .89   .79   .68   .57   .46
0  8   3.67  3.67  3.66  3.64  3.60  3.51  3.32  3.01  2.59  2.18  1.81  1.51  1.28  1.09   .99   .89   .79   .68   .57   .46
0  9   2.93  2.93  2.93  2.92  2.90  2.86  2.76  2.59  2.32  2.02  1.72  1.46  1.25  1.08   .98   .89   .79   .68   .57   .46
0 10   2.36  2.36  2.35  2.35  2.34  2.32  2.27  2.18  2.02  1.81  1.59  1.39  1.22  1.07   .98   .88   .78   .68   .57   .46
0 11   1.90  1.90  1.90  1.89  1.89  1.88  1.86  1.81  1.72  1.59  1.45  1.30  1.17  1.05   .97   .88   .78   .68   .57   .46
0 12   1.56  1.56  1.56  1.56  1.55  1.55  1.54  1.51  1.46  1.39  1.30  1.21  1.12  1.03   .95   .87   .78   .67   .57   .46
0 13   1.30  1.30  1.30  1.30  1.30  1.30  1.29  1.28  1.25  1.22  1.17  1.12  1.06  1.00   .94   .86   .77   .67   .56   .46
0 14   1.10  1.10  1.10  1.10  1.10  1.10  1.10  1.09  1.08  1.07  1.05  1.03  1.00   .96   .91   .84   .76   .66   .56   .45
0 15    .99   .99   .99   .99   .99   .99   .99   .99   .98   .98   .97   .95   .94   .91   .86   .81   .74   .65   .55   .45
0 16    .89   .89   .89   .89   .89   .89   .89   .89   .89   .88   .88   .87   .86   .84   .81   .77   .71   .63   .54   .44
0 17    .79   .79   .79   .79   .79   .79   .79   .79   .79   .78   .78   .78   .77   .76   .74   .71   .66   .60   .52   .43
0 18    .68   .68   .68   .68   .68   .68   .68   .68   .68   .68   .68   .67   .67   .66   .65   .63   .60   .56   .50   .42
0 19    .57   .57   .57   .57   .57   .57   .57   .57   .57   .57   .57   .57   .56   .56   .55   .54   .52   .50   .45   .39
0 20    .46   .46   .46   .46   .46   .46   .46   .46   .46   .46   .46   .46   .46   .45   .45   .44   .43   .42   .39   .34
0 21    .35   .35   .35   .35   .35   .35   .35   .35   .35   .35   .35   .35   .34   .34   .34   .34   .33   .32   .31   .28
0 22    .24   .24   .24   .24   .24   .24   .24   .24   .24   .24   .24   .24   .24   .24   .24   .24   .24   .23   .22   .21
0 23    .16   .16   .16   .16   .16   .16   .16   .16   .16   .16   .16   .16   .16   .16   .16   .15   .15   .15   .15   .14
0 24    .08   .08   .08   .08   .08   .08   .08   .08   .08   .08   .08   .08   .08   .08   .08   .08   .08   .08   .08   .08
0 25    .04   .04   .04   .04   .04   .04   .04   .04   .04   .04   .04   .04   .04   .04   .04   .04   .04   .04   .03   .03
0 26    .01   .01   .01   .01   .01   .01   .01   .01   .01   .01   .01   .01   .01   .01   .01   .01   .01   .01   .01   .01
1                  DRAWDOWN IN LAYER  1 AT END OF TIME STEP 22 IN STRESS PERIOD  1
           -----------------------------------------------------------------------

        21    22    23    24    25    26
 ............................................
0  1    .35   .24   .16   .08   .04   .01
0  2    .35   .24   .16   .08   .04   .01
0  3    .35   .24   .16   .08   .04   .01
0  4    .35   .24   .16   .08   .04   .01
0  5    .35   .24   .16   .08   .04   .01
0  6    .35   .24   .16   .08   .04   .01
0  7    .35   .24   .16   .08   .04   .01
0  8    .35   .24   .16   .08   .04   .01
0  9    .35   .24   .16   .08   .04   .01
0 10    .35   .24   .16   .08   .04   .01
0 11    .35   .24   .16   .08   .04   .01
0 12    .35   .24   .16   .08   .04   .01
0 13    .34   .24   .16   .08   .04   .01
0 14    .34   .24   .16   .08   .04   .01
0 15    .34   .24   .16   .08   .04   .01
0 16    .34   .24   .15   .08   .04   .01
0 17    .33   .24   .15   .08   .04   .01
0 18    .32   .23   .15   .08   .04   .01
0 19    .31   .22   .15   .08   .03   .01
0 20    .28   .21   .14   .08   .03   .01
0 21    .24   .18   .13   .07   .03   .01
0 22    .18   .15   .11   .06   .03   .01
0 23    .13   .11   .08   .05   .02   .01
0 24    .07   .06   .05   .03   .02   .01
0 25    .03   .03   .02   .02   .01   .00
0 26    .01   .01   .01   .01   .00   .00
0


          TIME SUMMARY AT END OF TIME STEP 22 IN STRESS PERIOD  1
                               SECONDS        MINUTES         HOURS          DAYS           YEARS
                           ---------------------------------------------------------------------------
      TIME STEP LENGTH         894935.        14915.6        248.593        10.3580        .283588E-01
    STRESS PERIOD TIME         .305512E+07    50918.6        848.644        35.3602        .968108E-01
 TOTAL SIMULATION TIME         .305512E+07    50918.6        848.644        35.3602        .968108E-01
1
    11 ITERATIONS FOR TIME STEP  23 IN STRESS PERIOD  1
0MAXIMUM HEAD CHANGE FOR EACH ITERATION:
0 HEAD CHANGE LAYER,ROW,COL HEAD CHANGE LAYER,ROW,COL HEAD CHANGE LAYER,ROW,COL HEAD CHANGE LAYER,ROW,COL HEAD CHANGE LAYER,ROW,COL
 ------------------------------------------------------------------------------------------------------------------------------------
   -.6221E-01 (  1, 11, 10)  -.8217E-01 (  1, 10,  9)  -.1083     (  1,  7,  5)  -.1186     (  1,  1,  2)  -.1330     (  1,  4,  1)
    .8107E-02 (  1,  9,  1)   .9538E-02 (  1, 10,  4)   .1052E-01 (  1,  8,  5)   .1366E-01 (  1,  1,  1)  -.1001E-02 (  1,  9,  4)
   -.2616E-03 (  1, 15, 13)
0
0HEAD/DRAWDOWN PRINTOUT FLAG = 1     TOTAL BUDGET PRINTOUT FLAG = 0     CELL-BY-CELL FLOW TERM FLAG = 0
 REUSING PREVIOUS VALUES OF IOFLG
1                  DRAWDOWN IN LAYER  1 AT END OF TIME STEP 23 IN STRESS PERIOD  1
           -----------------------------------------------------------------------

         1     2     3     4     5     6     7     8     9    10    11    12    13    14    15    16    17    18    19    20
 ................................................................................................................................
0  1  12.13 10.17  8.80  7.70  6.65  5.69  4.83  4.00  3.25  2.66  2.17  1.79  1.48  1.22  1.05   .95   .85   .74   .63   .52
0  2  10.17  9.51  8.59  7.63  6.62  5.68  4.83  4.00  3.25  2.66  2.17  1.79  1.48  1.22  1.05   .95   .85   .74   .63   .52
0  3   8.80  8.59  8.10  7.41  6.53  5.65  4.81  4.00  3.25  2.66  2.17  1.79  1.48  1.22  1.05   .95   .85   .74   .63   .52
0  4   7.70  7.63  7.41  7.00  6.34  5.56  4.78  3.98  3.24  2.65  2.16  1.79  1.48  1.22  1.05   .95   .85   .74   .63   .52
0  5   6.65  6.62  6.53  6.34  5.95  5.37  4.68  3.94  3.22  2.64  2.16  1.78  1.48  1.22  1.05   .95   .85   .74   .63   .52
0  6   5.69  5.68  5.65  5.56  5.37  5.00  4.48  3.84  3.18  2.62  2.15  1.78  1.47  1.22  1.05   .95   .85   .74   .63   .52
0  7   4.83  4.83  4.81  4.78  4.68  4.48  4.14  3.65  3.08  2.57  2.12  1.76  1.47  1.21  1.05   .95   .85   .74   .63   .52
0  8   4.00  4.00  4.00  3.98  3.94  3.84  3.65  3.34  2.90  2.47  2.07  1.73  1.45  1.21  1.04   .95   .85   .74   .63   .52
0  9   3.25  3.25  3.25  3.24  3.22  3.18  3.08  2.90  2.62  2.30  1.97  1.68  1.42  1.19  1.04   .95   .84   .74   .63   .52
0 10   2.66  2.66  2.66  2.65  2.64  2.62  2.57  2.47  2.30  2.07  1.83  1.59  1.38  1.17  1.03   .94   .84   .74   .63   .52
0 11   2.17  2.17  2.17  2.16  2.16  2.15  2.12  2.07  1.97  1.83  1.66  1.48  1.31  1.15  1.03   .94   .84   .74   .63   .52
0 12   1.79  1.79  1.79  1.79  1.78  1.78  1.76  1.73  1.68  1.59  1.48  1.36  1.24  1.11  1.01   .93   .83   .73   .62   .51
0 13   1.48  1.48  1.48  1.48  1.48  1.47  1.47  1.45  1.42  1.38  1.31  1.24  1.16  1.07  1.00   .92   .83   .73   .62   .51
0 14   1.22  1.22  1.22  1.22  1.22  1.22  1.21  1.21  1.19  1.17  1.15  1.11  1.07  1.02   .97   .90   .82   .72   .62   .51
0 15   1.05  1.05  1.05  1.05  1.05  1.05  1.05  1.04  1.04  1.03  1.03  1.01  1.00   .97   .92   .87   .80   .71   .61   .51
0 16    .95   .95   .95   .95   .95   .95   .95   .95   .95   .94   .94   .93   .92   .90   .87   .83   .77   .69   .60   .50
0 17    .85   .85   .85   .85   .85   .85   .85   .85   .84   .84   .84   .83   .83   .82   .80   .77   .72   .66   .58   .49
0 18    .74   .74   .74   .74   .74   .74   .74   .74   .74   .74   .74   .73   .73   .72   .71   .69   .66   .62   .55   .47
0 19    .63   .63   .63   .63   .63   .63   .63   .63   .63   .63   .63   .62   .62   .62   .61   .60   .58   .55   .51   .44
0 20    .52   .52   .52   .52   .52   .52   .52   .52   .52   .52   .52   .51   .51   .51   .51   .50   .49   .47   .44   .40
0 21    .40   .40   .40   .40   .40   .40   .40   .40   .40   .40   .40   .40   .40   .40   .40   .40   .39   .38   .36   .34
0 22    .30   .30   .30   .30   .30   .30   .30   .30   .29   .29   .29   .29   .29   .29   .29   .29   .29   .28   .28   .26
0 23    .20   .20   .20   .20   .20   .20   .20   .20   .20   .20   .20   .20   .20   .20   .20   .20   .20   .20   .19   .18
0 24    .12   .12   .12   .12   .12   .12   .12   .12   .12   .12   .12   .12   .12   .12   .12   .12   .12   .12   .12   .11
0 25    .06   .06   .06   .06   .06   .06   .06   .06   .06   .06   .06   .06   .06   .06   .06   .06   .06   .06   .06   .06
0 26    .03   .03   .03   .03   .03   .03   .03   .03   .03   .03   .03   .03   .03   .03   .03   .03   .03   .03   .02   .02
1                  DRAWDOWN IN LAYER  1 AT END OF TIME STEP 23 IN STRESS PERIOD  1
           -----------------------------------------------------------------------

        21    22    23    24    25    26
 ............................................
0  1    .40   .30   .20   .12   .06   .03
0  2    .40   .30   .20   .12   .06   .03
0  3    .40   .30   .20   .12   .06   .03
0  4    .40   .30   .20   .12   .06   .03
0  5    .40   .30   .20   .12   .06   .03
0  6    .40   .30   .20   .12   .06   .03
0  7    .40   .30   .20   .12   .06   .03
0  8    .40   .30   .20   .12   .06   .03
0  9    .40   .29   .20   .12   .06   .03
0 10    .40   .29   .20   .12   .06   .03
0 11    .40   .29   .20   .12   .06   .03
0 12    .40   .29   .20   .12   .06   .03
0 13    .40   .29   .20   .12   .06   .03
0 14    .40   .29   .20   .12   .06   .03
0 15    .40   .29   .20   .12   .06   .03
0 16    .40   .29   .20   .12   .06   .03
0 17    .39   .29   .20   .12   .06   .03
0 18    .38   .28   .20   .12   .06   .03
0 19    .36   .28   .19   .12   .06   .02
0 20    .34   .26   .18   .11   .06   .02
0 21    .29   .23   .17   .11   .06   .02
0 22    .23   .19   .15   .09   .05   .02
0 23    .17   .15   .12   .08   .04   .02
0 24    .11   .09   .08   .06   .03   .02
0 25    .06   .05   .04   .03   .02   .01
0 26    .02   .02   .02   .02   .01   .01
0


          TIME SUMMARY AT END OF TIME STEP 23 IN STRESS PERIOD  1
                               SECONDS        MINUTES         HOURS          DAYS           YEARS
                           ---------------------------------------------------------------------------
      TIME STEP LENGTH         .126544E+07    21090.6        351.511        14.6463        .400993E-01
    STRESS PERIOD TIME         .432056E+07    72009.3        1200.15        50.0064        .136910    
 TOTAL SIMULATION TIME         .432056E+07    72009.3        1200.15        50.0064        .136910    
1
    11 ITERATIONS FOR TIME STEP  24 IN STRESS PERIOD  1
0MAXIMUM HEAD CHANGE FOR EACH ITERATION:
0 HEAD CHANGE LAYER,ROW,COL HEAD CHANGE LAYER,ROW,COL HEAD CHANGE LAYER,ROW,COL HEAD CHANGE LAYER,ROW,COL HEAD CHANGE LAYER,ROW,COL
 ------------------------------------------------------------------------------------------------------------------------------------
   -.5797E-01 (  1, 11, 11)  -.8030E-01 (  1, 10, 10)  -.1051     (  1,  3, 10)  -.1257     (  1,  1,  3)  -.1581     (  1,  4,  1)
    .8169E-02 (  1,  9,  1)   .1096E-01 (  1, 10,  5)   .1362E-01 (  1,  8,  6)   .2478E-01 (  1,  1,  1)  -.2129E-02 (  1,  9,  6)
   -.2660E-03 (  1, 16, 13)
0
0HEAD/DRAWDOWN PRINTOUT FLAG = 1     TOTAL BUDGET PRINTOUT FLAG = 0     CELL-BY-CELL FLOW TERM FLAG = 0
 REUSING PREVIOUS VALUES OF IOFLG
1                  DRAWDOWN IN LAYER  1 AT END OF TIME STEP 24 IN STRESS PERIOD  1
           -----------------------------------------------------------------------

         1     2     3     4     5     6     7     8     9    10    11    12    13    14    15    16    17    18    19    20
 ................................................................................................................................
0  1  12.48 10.52  9.15  8.05  7.00  6.04  5.18  4.35  3.59  2.97  2.46  2.05  1.70  1.38  1.14  1.02   .91   .80   .69   .58
0  2  10.52  9.86  8.94  7.98  6.97  6.03  5.17  4.34  3.58  2.97  2.46  2.05  1.70  1.38  1.14  1.02   .91   .80   .69   .58
0  3   9.15  8.94  8.45  7.76  6.88  6.00  5.16  4.34  3.58  2.97  2.46  2.05  1.70  1.38  1.14  1.02   .91   .80   .69   .58
0  4   8.05  7.98  7.76  7.35  6.69  5.91  5.12  4.32  3.57  2.97  2.46  2.04  1.70  1.37  1.14  1.02   .91   .80   .69   .58
0  5   7.00  6.97  6.88  6.69  6.30  5.71  5.03  4.28  3.55  2.96  2.45  2.04  1.69  1.37  1.14  1.02   .91   .80   .69   .58
0  6   6.04  6.03  6.00  5.91  5.71  5.35  4.83  4.18  3.51  2.93  2.44  2.03  1.69  1.37  1.14  1.02   .91   .80   .69   .58
0  7   5.18  5.17  5.16  5.12  5.03  4.83  4.49  3.99  3.41  2.88  2.41  2.02  1.68  1.37  1.14  1.02   .91   .80   .69   .58
0  8   4.35  4.34  4.34  4.32  4.28  4.18  3.99  3.67  3.23  2.78  2.35  1.99  1.66  1.36  1.13  1.01   .91   .80   .69   .58
0  9   3.59  3.58  3.58  3.57  3.55  3.51  3.41  3.23  2.94  2.60  2.24  1.92  1.63  1.34  1.13  1.01   .91   .80   .69   .58
0 10   2.97  2.97  2.97  2.97  2.96  2.93  2.88  2.78  2.60  2.36  2.09  1.83  1.57  1.32  1.12  1.01   .91   .80   .69   .58
0 11   2.46  2.46  2.46  2.46  2.45  2.44  2.41  2.35  2.24  2.09  1.90  1.70  1.50  1.28  1.10  1.00   .90   .80   .69   .58
0 12   2.05  2.05  2.05  2.04  2.04  2.03  2.02  1.99  1.92  1.83  1.70  1.56  1.40  1.23  1.08  1.00   .90   .80   .69   .58
0 13   1.70  1.70  1.70  1.70  1.69  1.69  1.68  1.66  1.63  1.57  1.50  1.40  1.30  1.17  1.06   .98   .89   .79   .69   .58
0 14   1.38  1.38  1.38  1.37  1.37  1.37  1.37  1.36  1.34  1.32  1.28  1.23  1.17  1.10  1.03   .96   .88   .79   .68   .57
0 15   1.14  1.14  1.14  1.14  1.14  1.14  1.14  1.13  1.13  1.12  1.10  1.08  1.06  1.03   .99   .93   .86   .77   .68   .57
0 16   1.02  1.02  1.02  1.02  1.02  1.02  1.02  1.01  1.01  1.01  1.00  1.00   .98   .96   .93   .89   .83   .76   .66   .56
0 17    .91   .91   .91   .91   .91   .91   .91   .91   .91   .91   .90   .90   .89   .88   .86   .83   .79   .73   .65   .55
0 18    .80   .80   .80   .80   .80   .80   .80   .80   .80   .80   .80   .80   .79   .79   .77   .76   .73   .68   .62   .54
0 19    .69   .69   .69   .69   .69   .69   .69   .69   .69   .69   .69   .69   .69   .68   .68   .66   .65   .62   .57   .51
0 20    .58   .58   .58   .58   .58   .58   .58   .58   .58   .58   .58   .58   .58   .57   .57   .56   .55   .54   .51   .46
0 21    .46   .46   .46   .46   .46   .46   .46   .46   .46   .46   .46   .46   .46   .46   .46   .46   .45   .44   .42   .39
0 22    .35   .35   .35   .35   .35   .35   .35   .35   .35   .35   .35   .35   .35   .35   .35   .35   .35   .34   .33   .31
0 23    .26   .26   .26   .26   .26   .26   .26   .26   .26   .26   .26   .26   .26   .26   .25   .25   .25   .25   .24   .24
0 24    .17   .17   .17   .17   .17   .17   .17   .17   .17   .17   .17   .17   .17   .17   .17   .17   .17   .16   .16   .16
0 25    .10   .10   .10   .10   .10   .10   .10   .10   .10   .10   .10   .10   .10   .10   .10   .09   .09   .09   .09   .09
0 26    .05   .05   .05   .05   .05   .05   .05   .05   .05   .05   .05   .05   .05   .05   .05   .05   .05   .05   .05   .05
1                  DRAWDOWN IN LAYER  1 AT END OF TIME STEP 24 IN STRESS PERIOD  1
           -----------------------------------------------------------------------

        21    22    23    24    25    26
 ............................................
0  1    .46   .35   .26   .17   .10   .05
0  2    .46   .35   .26   .17   .10   .05
0  3    .46   .35   .26   .17   .10   .05
0  4    .46   .35   .26   .17   .10   .05
0  5    .46   .35   .26   .17   .10   .05
0  6    .46   .35   .26   .17   .10   .05
0  7    .46   .35   .26   .17   .10   .05
0  8    .46   .35   .26   .17   .10   .05
0  9    .46   .35   .26   .17   .10   .05
0 10    .46   .35   .26   .17   .10   .05
0 11    .46   .35   .26   .17   .10   .05
0 12    .46   .35   .26   .17   .10   .05
0 13    .46   .35   .26   .17   .10   .05
0 14    .46   .35   .26   .17   .10   .05
0 15    .46   .35   .25   .17   .10   .05
0 16    .46   .35   .25   .17   .09   .05
0 17    .45   .35   .25   .17   .09   .05
0 18    .44   .34   .25   .16   .09   .05
0 19    .42   .33   .24   .16   .09   .05
0 20    .39   .31   .24   .16   .09   .05
0 21    .35   .29   .22   .15   .09   .05
0 22    .29   .24   .19   .14   .08   .04
0 23    .22   .19   .16   .12   .07   .04
0 24    .15   .14   .12   .09   .06   .03
0 25    .09   .08   .07   .06   .04   .03
0 26    .05   .04   .04   .03   .03   .02
0


          TIME SUMMARY AT END OF TIME STEP 24 IN STRESS PERIOD  1
                               SECONDS        MINUTES         HOURS          DAYS           YEARS
                           ---------------------------------------------------------------------------
      TIME STEP LENGTH         .178933E+07    29822.2        497.036        20.7098        .567005E-01
    STRESS PERIOD TIME         .610989E+07    101831.        1697.19        70.7163        .193611    
 TOTAL SIMULATION TIME         .610989E+07    101831.        1697.19        70.7163        .193611    
1
    11 ITERATIONS FOR TIME STEP  25 IN STRESS PERIOD  1
0MAXIMUM HEAD CHANGE FOR EACH ITERATION:
0 HEAD CHANGE LAYER,ROW,COL HEAD CHANGE LAYER,ROW,COL HEAD CHANGE LAYER,ROW,COL HEAD CHANGE LAYER,ROW,COL HEAD CHANGE LAYER,ROW,COL
 ------------------------------------------------------------------------------------------------------------------------------------
   -.5697E-01 (  1, 13, 13)  -.7846E-01 (  1, 11, 11)  -.1035     (  1,  4, 10)  -.1311     (  1,  1,  4)  -.1850     (  1,  1,  1)
    .7992E-02 (  1,  9,  1)   .1199E-01 (  1, 10,  5)   .1657E-01 (  1,  8,  6)   .3654E-01 (  1,  1,  1)  -.3174E-02 (  1,  9,  7)
   -.3989E-03 (  1, 16, 15)
0
0HEAD/DRAWDOWN PRINTOUT FLAG = 1     TOTAL BUDGET PRINTOUT FLAG = 1     CELL-BY-CELL FLOW TERM FLAG = 0
0OUTPUT FLAGS FOR EACH LAYER:
          HEAD    DRAWDOWN  HEAD  DRAWDOWN
 LAYER  PRINTOUT  PRINTOUT  SAVE    SAVE
 -----------------------------------------
    1       0         1       0       1
1                  DRAWDOWN IN LAYER  1 AT END OF TIME STEP 25 IN STRESS PERIOD  1
           -----------------------------------------------------------------------

         1     2     3     4     5     6     7     8     9    10    11    12    13    14    15    16    17    18    19    20
 ................................................................................................................................
0  1  12.84 10.87  9.50  8.40  7.35  6.39  5.53  4.69  3.92  3.30  2.77  2.33  1.94  1.57  1.27  1.08   .97   .87   .75   .64
0  2  10.87 10.21  9.29  8.33  7.32  6.38  5.52  4.69  3.92  3.30  2.77  2.33  1.94  1.57  1.27  1.08   .97   .87   .75   .64
0  3   9.50  9.29  8.80  8.11  7.24  6.35  5.51  4.68  3.92  3.30  2.77  2.33  1.94  1.57  1.27  1.08   .97   .87   .75   .64
0  4   8.40  8.33  8.11  7.70  7.04  6.26  5.47  4.67  3.91  3.29  2.76  2.33  1.94  1.57  1.27  1.08   .97   .87   .75   .64
0  5   7.35  7.32  7.24  7.04  6.65  6.06  5.38  4.62  3.89  3.28  2.76  2.32  1.94  1.57  1.27  1.08   .97   .87   .75   .64
0  6   6.39  6.38  6.35  6.26  6.06  5.69  5.17  4.53  3.84  3.26  2.75  2.32  1.94  1.57  1.27  1.08   .97   .87   .75   .64
0  7   5.53  5.52  5.51  5.47  5.38  5.17  4.83  4.34  3.75  3.21  2.72  2.30  1.93  1.56  1.27  1.08   .97   .87   .75   .64
0  8   4.69  4.69  4.68  4.67  4.62  4.53  4.34  4.01  3.56  3.10  2.66  2.26  1.91  1.56  1.26  1.08   .97   .87   .75   .64
0  9   3.92  3.92  3.92  3.91  3.89  3.84  3.75  3.56  3.26  2.91  2.54  2.20  1.87  1.54  1.26  1.08   .97   .86   .75   .64
0 10   3.30  3.30  3.30  3.29  3.28  3.26  3.21  3.10  2.91  2.66  2.38  2.09  1.81  1.50  1.24  1.07   .97   .86   .75   .64
0 11   2.77  2.77  2.77  2.76  2.76  2.75  2.72  2.66  2.54  2.38  2.17  1.95  1.72  1.46  1.22  1.06   .97   .86   .75   .64
0 12   2.33  2.33  2.33  2.33  2.32  2.32  2.30  2.26  2.20  2.09  1.95  1.79  1.61  1.40  1.19  1.05   .96   .86   .75   .64
0 13   1.94  1.94  1.94  1.94  1.94  1.94  1.93  1.91  1.87  1.81  1.72  1.61  1.48  1.32  1.16  1.04   .95   .86   .75   .64
0 14   1.57  1.57  1.57  1.57  1.57  1.57  1.56  1.56  1.54  1.50  1.46  1.40  1.32  1.22  1.11  1.02   .94   .85   .74   .64
0 15   1.27  1.27  1.27  1.27  1.27  1.27  1.27  1.26  1.26  1.24  1.22  1.19  1.16  1.11  1.05   .99   .92   .84   .74   .63
0 16   1.08  1.08  1.08  1.08  1.08  1.08  1.08  1.08  1.08  1.07  1.06  1.05  1.04  1.02   .99   .95   .89   .82   .73   .63
0 17    .97   .97   .97   .97   .97   .97   .97   .97   .97   .97   .97   .96   .95   .94   .92   .89   .85   .79   .71   .62
0 18    .87   .87   .87   .87   .87   .87   .87   .87   .86   .86   .86   .86   .86   .85   .84   .82   .79   .74   .68   .60
0 19    .75   .75   .75   .75   .75   .75   .75   .75   .75   .75   .75   .75   .75   .74   .74   .73   .71   .68   .63   .57
0 20    .64   .64   .64   .64   .64   .64   .64   .64   .64   .64   .64   .64   .64   .64   .63   .63   .62   .60   .57   .52
0 21    .53   .53   .53   .53   .53   .53   .53   .53   .53   .53   .53   .53   .52   .52   .52   .52   .51   .50   .49   .46
0 22    .41   .41   .41   .41   .41   .41   .41   .41   .41   .41   .41   .41   .41   .41   .41   .41   .41   .40   .39   .38
0 23    .31   .31   .31   .31   .31   .31   .31   .31   .31   .31   .31   .31   .31   .31   .31   .31   .31   .31   .30   .29
0 24    .22   .22   .22   .22   .22   .22   .22   .22   .22   .22   .22   .22   .22   .22   .22   .22   .22   .22   .21   .21
0 25    .14   .14   .14   .14   .14   .14   .14   .14   .14   .14   .14   .14   .14   .14   .14   .14   .14   .14   .14   .14
0 26    .09   .09   .09   .09   .09   .09   .09   .09   .09   .09   .09   .09   .09   .09   .09   .09   .09   .09   .09   .08
1                  DRAWDOWN IN LAYER  1 AT END OF TIME STEP 25 IN STRESS PERIOD  1
           -----------------------------------------------------------------------

        21    22    23    24    25    26
 ............................................
0  1    .53   .41   .31   .22   .14   .09
0  2    .53   .41   .31   .22   .14   .09
0  3    .53   .41   .31   .22   .14   .09
0  4    .53   .41   .31   .22   .14   .09
0  5    .53   .41   .31   .22   .14   .09
0  6    .53   .41   .31   .22   .14   .09
0  7    .53   .41   .31   .22   .14   .09
0  8    .53   .41   .31   .22   .14   .09
0  9    .53   .41   .31   .22   .14   .09
0 10    .53   .41   .31   .22   .14   .09
0 11    .53   .41   .31   .22   .14   .09
0 12    .53   .41   .31   .22   .14   .09
0 13    .52   .41   .31   .22   .14   .09
0 14    .52   .41   .31   .22   .14   .09
0 15    .52   .41   .31   .22   .14   .09
0 16    .52   .41   .31   .22   .14   .09
0 17    .51   .41   .31   .22   .14   .09
0 18    .50   .40   .31   .22   .14   .09
0 19    .49   .39   .30   .21   .14   .09
0 20    .46   .38   .29   .21   .14   .08
0 21    .41   .35   .28   .20   .13   .08
0 22    .35   .30   .25   .19   .13   .08
0 23    .28   .25   .21   .16   .11   .07
0 24    .20   .19   .16   .13   .10   .07
0 25    .13   .13   .11   .10   .08   .05
0 26    .08   .08   .07   .07   .05   .04
0DRAWDOWN WILL BE SAVED ON UNIT 30 AT END OF TIME STEP 25, STRESS PERIOD  1
0


                              VOLUMETRIC BUDGET FOR ENTIRE MODEL AT END OF TIME STEP 25 IN STRESS PERIOD  1
                              -----------------------------------------------------------------------------
0                   CUMULATIVE VOLUMES      L**3                                     RATES FOR THIS TIME STEP      L**3/T
                    ------------------                                               ------------------------

                          IN:                                                                    IN:
                          ---                                                                    ---
                            STORAGE =    .84063E+06                                                STORAGE =    8409.1    
                      CONSTANT HEAD =    .00000                                              CONSTANT HEAD =    .00000    
                              WELLS =    .00000                                                      WELLS =    .00000    
0                          TOTAL IN =    .84063E+06                                               TOTAL IN =    8409.1    
0                        OUT:                                                                   OUT:
                         ----                                                                   ----
                            STORAGE =    .00000                                                    STORAGE =    .00000    
                      CONSTANT HEAD =    .00000                                              CONSTANT HEAD =    .00000    
                              WELLS =    .84091E+06                                                  WELLS =    8409.1    
0                         TOTAL OUT =    .84091E+06                                              TOTAL OUT =    8409.1    
0                          IN - OUT =   -277.94                                                   IN - OUT =    .29297E-01
0               PERCENT DISCREPANCY =                -.03                              PERCENT DISCREPANCY =                 .00



0


          TIME SUMMARY AT END OF TIME STEP 25 IN STRESS PERIOD  1
                               SECONDS        MINUTES         HOURS          DAYS           YEARS
                           ---------------------------------------------------------------------------
      TIME STEP LENGTH         .253011E+07    42168.6        702.809        29.2837        .801745E-01
    STRESS PERIOD TIME         .864000E+07    144000.        2400.00        100.000        .273785    
 TOTAL SIMULATION TIME         .864000E+07    144000.        2400.00        100.000        .273785    
1
