1                    U.S. GEOLOGICAL SURVEY MODULAR FINITE-DIFFERENCE GROUND-WATER MODEL
0steady state problem                                                            5/28/91  PFA                                    
    1 LAYERS         7 ROWS         7 COLUMNS
   1 STRESS PERIOD(S) IN SIMULATION
 MODEL TIME UNIT IS DAYS
0I/O UNITS:
 ELEMENT OF IUNIT:  1  2  3  4  5  6  7  8  9 10 11 12 13 14 15 16 17 18 19 20 21 22 23 24
         I/O UNIT: 11 12  0  0  0  0  0 18 19  0  0 22  0  0  0  0  0  0  0  0  0  0  0  0
0BAS1 -- BASIC MODEL PACKAGE, VERSION 1, 9/1/87 INPUT READ FROM UNIT  1
 ARRAYS RHS AND BUFF WILL SHARE MEMORY.
 START HEAD WILL NOT BE SAVED -- DRAWDOWN CANNOT BE CALCULATED
      410 ELEMENTS IN X ARRAY ARE USED BY BAS
      410 ELEMENTS OF X ARRAY USED OUT OF  100000
0BCF1 -- BLOCK-CENTERED FLOW PACKAGE, VERSION 1, 9/1/87 INPUT READ FROM UNIT 11
 TRANSIENT SIMULATION
 CONSTANT HEAD CELL-BY-CELL FLOWS WILL BE PRINTED
      LAYER  AQUIFER TYPE
      -------------------
         1         0
       50 ELEMENTS IN X ARRAY ARE USED BY BCF
      460 ELEMENTS OF X ARRAY USED OUT OF  100000
0WEL1 -- WELL PACKAGE, VERSION 1, 9/1/87 INPUT READ FROM 12
 MAXIMUM OF    1 WELLS
        4 ELEMENTS IN X ARRAY ARE USED FOR WELLS
      464 ELEMENTS OF X ARRAY USED OUT OF  100000
0RCH1 -- RECHARGE PACKAGE, VERSION 1, 9/1/87 INPUT READ FROM UNIT 18
 OPTION 1 -- RECHARGE TO TOP LAYER
       49 ELEMENTS OF X ARRAY USED FOR RECHARGE
      513 ELEMENTS OF X ARRAY USED OUT OF  100000
0SIP1 -- STRONGLY IMPLICIT PROCEDURE SOLUTION PACKAGE, VERSION 1, 9/1/87 INPUT READ FROM UNIT 19
 MAXIMUM OF  50 ITERATIONS ALLOWED FOR CLOSURE
  5 ITERATION PARAMETERS
      401 ELEMENTS IN X ARRAY ARE USED BY SIP
      914 ELEMENTS OF X ARRAY USED OUT OF  100000
1steady state problem                                                            5/28/91  PFA                                    
0


                                        BOUNDARY ARRAY FOR LAYER  1 WILL BE READ ON UNIT  1 USING FORMAT: (40I2)              
                              ------------------------------------------------------------------------------------------------

       1  2  3  4  5  6  7
 ..............................
0  1  -1 -1 -1 -1 -1 -1 -1
0  2   1  1  1  1  1  1 -1
0  3   1  1  1  1  1  1 -1
0  4   1  1  1  1  1  1 -1
0  5   1  1  1  1  1  1 -1
0  6   1  1  1  1  1  1 -1
0  7   1  1  1  1  1  1 -1
0AQUIFER HEAD WILL BE SET TO  .00000     AT ALL NO-FLOW NODES (IBOUND=0).
0


                                          INITIAL HEAD FOR LAYER  1 WILL BE READ ON UNIT  1 USING FORMAT: (7G11.4)            
                              ------------------------------------------------------------------------------------------------

            1           2           3           4           5           6           7
 .........................................................................................
0  1    10.00       9.000       8.000       6.000       4.000       2.000       .0000    
0  2    10.00       10.00       10.00       10.00       10.00       10.00       3.000    
0  3    10.00       10.00       10.00       10.00       10.00       10.00       6.000    
0  4    10.00       10.00       10.00       10.00       10.00       10.00       8.000    
0  5    10.00       10.00       10.00       10.00       10.00       10.00       12.00    
0  6    10.00       10.00       10.00       10.00       10.00       10.00       15.00    
0  7    10.00       10.00       10.00       10.00       10.00       10.00       20.00    
0HEAD PRINT FORMAT IS FORMAT NUMBER  -4    DRAWDOWN PRINT FORMAT IS FORMAT NUMBER   0
0HEADS WILL BE SAVED ON UNIT 35    DRAWDOWNS WILL BE SAVED ON UNIT  0
0OUTPUT CONTROL IS SPECIFIED EVERY TIME STEP
0                                                    COLUMN TO ROW ANISOTROPY =   1.000000    
0                                                                        DELR =   500.0000    
0                                                                        DELC =   500.0000    
0                                                        PRIMARY STORAGE COEF =   .1000000E-01 FOR LAYER  1
0                                                        TRANSMIS. ALONG ROWS =   500.0000     FOR LAYER  1
0


                                                         SOLUTION BY THE STRONGLY IMPLICIT PROCEDURE
                                                         -------------------------------------------
0                                               MAXIMUM ITERATIONS ALLOWED FOR CLOSURE =       50
                                                                ACCELERATION PARAMETER =     1.0000    
                                                     HEAD CHANGE CRITERION FOR CLOSURE =     .10000E-01
                                                     SIP HEAD CHANGE PRINTOUT INTERVAL =        1
0                                                    CALCULATE ITERATION PARAMETERS FROM MODEL CALCULATED WSEED
1                                                   STRESS PERIOD NO.   1, LENGTH =   365.0000    
                                                    ----------------------------------------------

                                                    NUMBER OF TIME STEPS =     5

                                                     MULTIPLIER FOR DELT =     1.500

                                                  INITIAL TIME STEP SIZE =   27.67772    
0             1 WELLS
                                                LAYER    ROW    COL    STRESS RATE   WELL NO.
                                                ---------------------------------------------
                                                  1       5      3     -8000.0           1
0                                                                    RECHARGE =   .1000000E-02
0AVERAGE SEED =  .05035512
 MINIMUM SEED =  .05035512
0
    5 ITERATION PARAMETERS CALCULATED FROM AVERAGE SEED:

             .0000000E+00   .5262918E+00   .7756006E+00   .8937001E+00   .9496449E+00
0
     6 ITERATIONS FOR TIME STEP   1 IN STRESS PERIOD  1
0MAXIMUM HEAD CHANGE FOR EACH ITERATION:
0 HEAD CHANGE LAYER,ROW,COL HEAD CHANGE LAYER,ROW,COL HEAD CHANGE LAYER,ROW,COL HEAD CHANGE LAYER,ROW,COL HEAD CHANGE LAYER,ROW,COL
 ------------------------------------------------------------------------------------------------------------------------------------
    4.929     (  1,  7,  6)  -.8958     (  1,  4,  4)  -.1963     (  1,  3,  3)  -.7280E-01 (  1,  4,  1)  -.2695E-01 (  1,  6,  3)
   -.2204E-02 (  1,  4,  5)
0
0HEAD/DRAWDOWN PRINTOUT FLAG = 1     TOTAL BUDGET PRINTOUT FLAG = 1     CELL-BY-CELL FLOW TERM FLAG = 1
0OUTPUT FLAGS FOR ALL LAYERS ARE THE SAME:
   HEAD    DRAWDOWN  HEAD  DRAWDOWN
 PRINTOUT  PRINTOUT  SAVE    SAVE
 ----------------------------------
     1         0       0       0
0   CONSTANT HEAD   PERIOD  1   STEP  1   LAYER  1   ROW   1   COL   1   RATE    27.37171    
0   CONSTANT HEAD   PERIOD  1   STEP  1   LAYER  1   ROW   1   COL   2   RATE   -216.1433    
0   CONSTANT HEAD   PERIOD  1   STEP  1   LAYER  1   ROW   1   COL   3   RATE   -344.6247    
0   CONSTANT HEAD   PERIOD  1   STEP  1   LAYER  1   ROW   1   COL   4   RATE   -837.6093    
0   CONSTANT HEAD   PERIOD  1   STEP  1   LAYER  1   ROW   1   COL   5   RATE   -1249.781    
0   CONSTANT HEAD   PERIOD  1   STEP  1   LAYER  1   ROW   1   COL   6   RATE   -1527.405    
0   CONSTANT HEAD   PERIOD  1   STEP  1   LAYER  1   ROW   1   COL   7   RATE    .0000000    
0   CONSTANT HEAD   PERIOD  1   STEP  1   LAYER  1   ROW   2   COL   7   RATE   -1027.405    
0   CONSTANT HEAD   PERIOD  1   STEP  1   LAYER  1   ROW   3   COL   7   RATE   -663.1619    
0   CONSTANT HEAD   PERIOD  1   STEP  1   LAYER  1   ROW   4   COL   7   RATE   -565.8427    
0   CONSTANT HEAD   PERIOD  1   STEP  1   LAYER  1   ROW   5   COL   7   RATE    372.0703    
0   CONSTANT HEAD   PERIOD  1   STEP  1   LAYER  1   ROW   6   COL   7   RATE    872.8510    
0   CONSTANT HEAD   PERIOD  1   STEP  1   LAYER  1   ROW   7   COL   7   RATE    2417.705    
1                      HEAD IN LAYER  1 AT END OF TIME STEP  1 IN STRESS PERIOD  1
           -----------------------------------------------------------------------

           1       2       3       4       5       6       7
 ................................................................
0  1    10.00    9.00    8.00    6.00    4.00    2.00     .00
0  2     9.95    9.43    8.69    7.68    6.50    5.05    3.00
0  3     9.89    9.49    8.91    8.59    8.14    7.33    6.00
0  4     9.72    9.14    8.18    8.89    9.29    9.13    8.00
0  5     9.59    8.50    4.95    8.79   10.36   11.26   12.00
0  6     9.98    9.54    8.92   10.25   11.68   13.25   15.00
0  7    10.30   10.18   10.24   11.15   12.67   15.16   20.00
0


                              VOLUMETRIC BUDGET FOR ENTIRE MODEL AT END OF TIME STEP  1 IN STRESS PERIOD  1
                              -----------------------------------------------------------------------------
0                   CUMULATIVE VOLUMES      L**3                                     RATES FOR THIS TIME STEP      L**3/T
                    ------------------                                               ------------------------

                          IN:                                                                    IN:
                          ---                                                                    ---
                            STORAGE =    89340.                                                    STORAGE =    3227.9    
                      CONSTANT HEAD =    .10213E+06                                          CONSTANT HEAD =    3690.0    
                              WELLS =    .00000                                                      WELLS =    .00000    
                           RECHARGE =    .24910E+06                                               RECHARGE =    9000.0    
0                          TOTAL IN =    .44057E+06                                               TOTAL IN =    15918.    
0                        OUT:                                                                   OUT:
                         ----                                                                   ----
                            STORAGE =    41290.                                                    STORAGE =    1491.8    
                      CONSTANT HEAD =    .17802E+06                                          CONSTANT HEAD =    6432.0    
                              WELLS =    .22142E+06                                                  WELLS =    8000.0    
                           RECHARGE =    .00000                                                   RECHARGE =    .00000    
0                         TOTAL OUT =    .44073E+06                                              TOTAL OUT =    15924.    
0                          IN - OUT =   -164.50                                                   IN - OUT =   -5.9434    
0               PERCENT DISCREPANCY =                -.04                              PERCENT DISCREPANCY =                -.04



0


          TIME SUMMARY AT END OF TIME STEP  1 IN STRESS PERIOD  1
                               SECONDS        MINUTES         HOURS          DAYS           YEARS
                           ---------------------------------------------------------------------------
      TIME STEP LENGTH         .239136E+07    39855.9        664.265        27.6777        .757775E-01
    STRESS PERIOD TIME         .239136E+07    39855.9        664.265        27.6777        .757775E-01
 TOTAL SIMULATION TIME         .239136E+07    39855.9        664.265        27.6777        .757775E-01
1
     6 ITERATIONS FOR TIME STEP   2 IN STRESS PERIOD  1
0MAXIMUM HEAD CHANGE FOR EACH ITERATION:
0 HEAD CHANGE LAYER,ROW,COL HEAD CHANGE LAYER,ROW,COL HEAD CHANGE LAYER,ROW,COL HEAD CHANGE LAYER,ROW,COL HEAD CHANGE LAYER,ROW,COL
 ------------------------------------------------------------------------------------------------------------------------------------
    .5510     (  1,  7,  6)  -.1968     (  1,  4,  3)  -.9981E-01 (  1,  4,  1)  -.5015E-01 (  1,  7,  1)  -.1511E-01 (  1,  7,  3)
   -.9755E-03 (  1,  5,  6)
0
0HEAD/DRAWDOWN PRINTOUT FLAG = 1     TOTAL BUDGET PRINTOUT FLAG = 1     CELL-BY-CELL FLOW TERM FLAG = 1
0OUTPUT FLAGS FOR ALL LAYERS ARE THE SAME:
   HEAD    DRAWDOWN  HEAD  DRAWDOWN
 PRINTOUT  PRINTOUT  SAVE    SAVE
 ----------------------------------
     1         0       0       0
0   CONSTANT HEAD   PERIOD  1   STEP  2   LAYER  1   ROW   1   COL   1   RATE    129.2715    
0   CONSTANT HEAD   PERIOD  1   STEP  2   LAYER  1   ROW   1   COL   2   RATE   -82.55173    
0   CONSTANT HEAD   PERIOD  1   STEP  2   LAYER  1   ROW   1   COL   3   RATE   -165.7182    
0   CONSTANT HEAD   PERIOD  1   STEP  2   LAYER  1   ROW   1   COL   4   RATE   -617.0074    
0   CONSTANT HEAD   PERIOD  1   STEP  2   LAYER  1   ROW   1   COL   5   RATE   -1004.271    
0   CONSTANT HEAD   PERIOD  1   STEP  2   LAYER  1   ROW   1   COL   6   RATE   -1311.186    
0   CONSTANT HEAD   PERIOD  1   STEP  2   LAYER  1   ROW   1   COL   7   RATE    .0000000    
0   CONSTANT HEAD   PERIOD  1   STEP  2   LAYER  1   ROW   2   COL   7   RATE   -811.1862    
0   CONSTANT HEAD   PERIOD  1   STEP  2   LAYER  1   ROW   3   COL   7   RATE   -464.4330    
0   CONSTANT HEAD   PERIOD  1   STEP  2   LAYER  1   ROW   4   COL   7   RATE   -463.3185    
0   CONSTANT HEAD   PERIOD  1   STEP  2   LAYER  1   ROW   5   COL   7   RATE    339.1352    
0   CONSTANT HEAD   PERIOD  1   STEP  2   LAYER  1   ROW   6   COL   7   RATE    699.5560    
0   CONSTANT HEAD   PERIOD  1   STEP  2   LAYER  1   ROW   7   COL   7   RATE    2141.128    
1                      HEAD IN LAYER  1 AT END OF TIME STEP  2 IN STRESS PERIOD  1
           -----------------------------------------------------------------------

           1       2       3       4       5       6       7
 ................................................................
0  1    10.00    9.00    8.00    6.00    4.00    2.00     .00
0  2     9.74    9.17    8.33    7.23    6.01    4.62    3.00
0  3     9.53    9.06    8.38    8.04    7.62    6.93    6.00
0  4     9.26    8.58    7.54    8.37    8.93    8.93    8.00
0  5     9.12    7.91    4.25    8.40   10.27   11.32   12.00
0  6     9.61    9.14    8.55   10.16   11.91   13.60   15.00
0  7    10.04    9.93   10.09   11.29   13.12   15.72   20.00
0


                              VOLUMETRIC BUDGET FOR ENTIRE MODEL AT END OF TIME STEP  2 IN STRESS PERIOD  1
                              -----------------------------------------------------------------------------
0                   CUMULATIVE VOLUMES      L**3                                     RATES FOR THIS TIME STEP      L**3/T
                    ------------------                                               ------------------------

                          IN:                                                                    IN:
                          ---                                                                    ---
                            STORAGE =    .11896E+06                                                STORAGE =    713.37    
                      CONSTANT HEAD =    .23951E+06                                          CONSTANT HEAD =    3309.1    
                              WELLS =    .00000                                                      WELLS =    .00000    
                           RECHARGE =    .62275E+06                                               RECHARGE =    9000.0    
0                          TOTAL IN =    .98122E+06                                               TOTAL IN =    13022.    
0                        OUT:                                                                   OUT:
                         ----                                                                   ----
                            STORAGE =    45715.                                                    STORAGE =    106.58    
                      CONSTANT HEAD =    .38227E+06                                          CONSTANT HEAD =    4919.7    
                              WELLS =    .55355E+06                                                  WELLS =    8000.0    
                           RECHARGE =    .00000                                                   RECHARGE =    .00000    
0                         TOTAL OUT =    .98154E+06                                              TOTAL OUT =    13026.    
0                          IN - OUT =   -321.88                                                   IN - OUT =   -3.7910    
0               PERCENT DISCREPANCY =                -.03                              PERCENT DISCREPANCY =                -.03



0


          TIME SUMMARY AT END OF TIME STEP  2 IN STRESS PERIOD  1
                               SECONDS        MINUTES         HOURS          DAYS           YEARS
                           ---------------------------------------------------------------------------
      TIME STEP LENGTH         .358703E+07    59783.9        996.398        41.5166        .113666    
    STRESS PERIOD TIME         .597839E+07    99639.8        1660.66        69.1943        .189444    
 TOTAL SIMULATION TIME         .597839E+07    99639.8        1660.66        69.1943        .189444    
1
     6 ITERATIONS FOR TIME STEP   3 IN STRESS PERIOD  1
0MAXIMUM HEAD CHANGE FOR EACH ITERATION:
0 HEAD CHANGE LAYER,ROW,COL HEAD CHANGE LAYER,ROW,COL HEAD CHANGE LAYER,ROW,COL HEAD CHANGE LAYER,ROW,COL HEAD CHANGE LAYER,ROW,COL
 ------------------------------------------------------------------------------------------------------------------------------------
   -.9144E-01 (  1,  5,  1)  -.8169E-01 (  1,  7,  1)  -.6052E-01 (  1,  7,  2)  -.3683E-01 (  1,  7,  1)  -.1123E-01 (  1,  7,  2)
   -.7601E-03 (  1,  5,  6)
0
0HEAD/DRAWDOWN PRINTOUT FLAG = 1     TOTAL BUDGET PRINTOUT FLAG = 1     CELL-BY-CELL FLOW TERM FLAG = 1
0OUTPUT FLAGS FOR ALL LAYERS ARE THE SAME:
   HEAD    DRAWDOWN  HEAD  DRAWDOWN
 PRINTOUT  PRINTOUT  SAVE    SAVE
 ----------------------------------
     1         0       0       0
0   CONSTANT HEAD   PERIOD  1   STEP  3   LAYER  1   ROW   1   COL   1   RATE    180.8782    
0   CONSTANT HEAD   PERIOD  1   STEP  3   LAYER  1   ROW   1   COL   2   RATE   -30.01110    
0   CONSTANT HEAD   PERIOD  1   STEP  3   LAYER  1   ROW   1   COL   3   RATE   -113.3281    
0   CONSTANT HEAD   PERIOD  1   STEP  3   LAYER  1   ROW   1   COL   4   RATE   -568.2272    
0   CONSTANT HEAD   PERIOD  1   STEP  3   LAYER  1   ROW   1   COL   5   RATE   -964.0021    
0   CONSTANT HEAD   PERIOD  1   STEP  3   LAYER  1   ROW   1   COL   6   RATE   -1286.387    
0   CONSTANT HEAD   PERIOD  1   STEP  3   LAYER  1   ROW   1   COL   7   RATE    .0000000    
0   CONSTANT HEAD   PERIOD  1   STEP  3   LAYER  1   ROW   2   COL   7   RATE   -786.3870    
0   CONSTANT HEAD   PERIOD  1   STEP  3   LAYER  1   ROW   3   COL   7   RATE   -429.5548    
0   CONSTANT HEAD   PERIOD  1   STEP  3   LAYER  1   ROW   4   COL   7   RATE   -430.8948    
0   CONSTANT HEAD   PERIOD  1   STEP  3   LAYER  1   ROW   5   COL   7   RATE    360.8081    
0   CONSTANT HEAD   PERIOD  1   STEP  3   LAYER  1   ROW   6   COL   7   RATE    707.6299    
0   CONSTANT HEAD   PERIOD  1   STEP  3   LAYER  1   ROW   7   COL   7   RATE    2139.523    
1                      HEAD IN LAYER  1 AT END OF TIME STEP  3 IN STRESS PERIOD  1
           -----------------------------------------------------------------------

           1       2       3       4       5       6       7
 ................................................................
0  1    10.00    9.00    8.00    6.00    4.00    2.00     .00
0  2     9.64    9.06    8.23    7.14    5.93    4.57    3.00
0  3     9.35    8.87    8.20    7.88    7.50    6.86    6.00
0  4     9.02    8.34    7.32    8.19    8.80    8.86    8.00
0  5     8.85    7.65    4.01    8.22   10.16   11.28   12.00
0  6     9.35    8.89    8.34   10.02   11.84   13.58   15.00
0  7     9.78    9.70    9.91   11.17   13.08   15.72   20.00
0


                              VOLUMETRIC BUDGET FOR ENTIRE MODEL AT END OF TIME STEP  3 IN STRESS PERIOD  1
                              -----------------------------------------------------------------------------
0                   CUMULATIVE VOLUMES      L**3                                     RATES FOR THIS TIME STEP      L**3/T
                    ------------------                                               ------------------------

                          IN:                                                                    IN:
                          ---                                                                    ---
                            STORAGE =    .13247E+06                                                STORAGE =    217.01    
                      CONSTANT HEAD =    .45055E+06                                          CONSTANT HEAD =    3388.8    
                              WELLS =    .00000                                                      WELLS =    .00000    
                           RECHARGE =    .11832E+07                                               RECHARGE =    9000.0    
0                          TOTAL IN =    .17662E+07                                               TOTAL IN =    12606.    
0                        OUT:                                                                   OUT:
                         ----                                                                   ----
                            STORAGE =    45723.                                                    STORAGE =    .12883    
                      CONSTANT HEAD =    .66928E+06                                          CONSTANT HEAD =    4608.8    
                              WELLS =    .10518E+07                                                  WELLS =    8000.0    
                           RECHARGE =    .00000                                                   RECHARGE =    .00000    
0                         TOTAL OUT =    .17668E+07                                              TOTAL OUT =    12609.    
0                          IN - OUT =   -513.25                                                   IN - OUT =   -3.0723    
0               PERCENT DISCREPANCY =                -.03                              PERCENT DISCREPANCY =                -.02



0


          TIME SUMMARY AT END OF TIME STEP  3 IN STRESS PERIOD  1
                               SECONDS        MINUTES         HOURS          DAYS           YEARS
                           ---------------------------------------------------------------------------
      TIME STEP LENGTH         .538055E+07    89675.8        1494.60        62.2749        .170499    
    STRESS PERIOD TIME         .113589E+08    189316.        3155.26        131.469        .359943    
 TOTAL SIMULATION TIME         .113589E+08    189316.        3155.26        131.469        .359943    
1
     5 ITERATIONS FOR TIME STEP   4 IN STRESS PERIOD  1
0MAXIMUM HEAD CHANGE FOR EACH ITERATION:
0 HEAD CHANGE LAYER,ROW,COL HEAD CHANGE LAYER,ROW,COL HEAD CHANGE LAYER,ROW,COL HEAD CHANGE LAYER,ROW,COL HEAD CHANGE LAYER,ROW,COL
 ------------------------------------------------------------------------------------------------------------------------------------
   -.4289E-01 (  1,  7,  1)  -.3826E-01 (  1,  7,  1)  -.2968E-01 (  1,  7,  2)  -.2012E-01 (  1,  7,  1)  -.6888E-02 (  1,  7,  2)
0
0HEAD/DRAWDOWN PRINTOUT FLAG = 1     TOTAL BUDGET PRINTOUT FLAG = 1     CELL-BY-CELL FLOW TERM FLAG = 1
0OUTPUT FLAGS FOR ALL LAYERS ARE THE SAME:
   HEAD    DRAWDOWN  HEAD  DRAWDOWN
 PRINTOUT  PRINTOUT  SAVE    SAVE
 ----------------------------------
     1         0       0       0
0   CONSTANT HEAD   PERIOD  1   STEP  4   LAYER  1   ROW   1   COL   1   RATE    200.4929    
0   CONSTANT HEAD   PERIOD  1   STEP  4   LAYER  1   ROW   1   COL   2   RATE   -11.32141    
0   CONSTANT HEAD   PERIOD  1   STEP  4   LAYER  1   ROW   1   COL   3   RATE   -96.52945    
0   CONSTANT HEAD   PERIOD  1   STEP  4   LAYER  1   ROW   1   COL   4   RATE   -554.3569    
0   CONSTANT HEAD   PERIOD  1   STEP  4   LAYER  1   ROW   1   COL   5   RATE   -954.0371    
0   CONSTANT HEAD   PERIOD  1   STEP  4   LAYER  1   ROW   1   COL   6   RATE   -1281.153    
0   CONSTANT HEAD   PERIOD  1   STEP  4   LAYER  1   ROW   1   COL   7   RATE    .0000000    
0   CONSTANT HEAD   PERIOD  1   STEP  4   LAYER  1   ROW   2   COL   7   RATE   -781.1526    
0   CONSTANT HEAD   PERIOD  1   STEP  4   LAYER  1   ROW   3   COL   7   RATE   -420.1959    
0   CONSTANT HEAD   PERIOD  1   STEP  4   LAYER  1   ROW   4   COL   7   RATE   -418.9462    
0   CONSTANT HEAD   PERIOD  1   STEP  4   LAYER  1   ROW   5   COL   7   RATE    373.9412    
0   CONSTANT HEAD   PERIOD  1   STEP  4   LAYER  1   ROW   6   COL   7   RATE    721.0064    
0   CONSTANT HEAD   PERIOD  1   STEP  4   LAYER  1   ROW   7   COL   7   RATE    2152.836    
1                      HEAD IN LAYER  1 AT END OF TIME STEP  4 IN STRESS PERIOD  1
           -----------------------------------------------------------------------

           1       2       3       4       5       6       7
 ................................................................
0  1    10.00    9.00    8.00    6.00    4.00    2.00     .00
0  2     9.60    9.02    8.19    7.11    5.91    4.56    3.00
0  3     9.27    8.80    8.14    7.83    7.46    6.84    6.00
0  4     8.92    8.25    7.23    8.12    8.76    8.84    8.00
0  5     8.73    7.54    3.91    8.15   10.11   11.25   12.00
0  6     9.22    8.77    8.23    9.94   11.78   13.56   15.00
0  7     9.65    9.57    9.80   11.09   13.02   15.69   20.00
0


                              VOLUMETRIC BUDGET FOR ENTIRE MODEL AT END OF TIME STEP  4 IN STRESS PERIOD  1
                              -----------------------------------------------------------------------------
0                   CUMULATIVE VOLUMES      L**3                                     RATES FOR THIS TIME STEP      L**3/T
                    ------------------                                               ------------------------

                          IN:                                                                    IN:
                          ---                                                                    ---
                            STORAGE =    .13858E+06                                                STORAGE =    65.425    
                      CONSTANT HEAD =    .77266E+06                                          CONSTANT HEAD =    3448.3    
                              WELLS =    .00000                                                      WELLS =    .00000    
                           RECHARGE =    .20239E+07                                               RECHARGE =    9000.0    
0                          TOTAL IN =    .29352E+07                                               TOTAL IN =    12514.    
0                        OUT:                                                                   OUT:
                         ----                                                                   ----
                            STORAGE =    45723.                                                    STORAGE =    .00000    
                      CONSTANT HEAD =    .10913E+07                                          CONSTANT HEAD =    4517.7    
                              WELLS =    .17991E+07                                                  WELLS =    8000.0    
                           RECHARGE =    .00000                                                   RECHARGE =    .00000    
0                         TOTAL OUT =    .29361E+07                                              TOTAL OUT =    12518.    
0                          IN - OUT =   -886.00                                                   IN - OUT =   -3.9893    
0               PERCENT DISCREPANCY =                -.03                              PERCENT DISCREPANCY =                -.03



0


          TIME SUMMARY AT END OF TIME STEP  4 IN STRESS PERIOD  1
                               SECONDS        MINUTES         HOURS          DAYS           YEARS
                           ---------------------------------------------------------------------------
      TIME STEP LENGTH         .807082E+07    134514.        2241.90        93.4123        .255749    
    STRESS PERIOD TIME         .194298E+08    323829.        5397.16        224.882        .615692    
 TOTAL SIMULATION TIME         .194298E+08    323829.        5397.16        224.882        .615692    
1
     4 ITERATIONS FOR TIME STEP   5 IN STRESS PERIOD  1
0MAXIMUM HEAD CHANGE FOR EACH ITERATION:
0 HEAD CHANGE LAYER,ROW,COL HEAD CHANGE LAYER,ROW,COL HEAD CHANGE LAYER,ROW,COL HEAD CHANGE LAYER,ROW,COL HEAD CHANGE LAYER,ROW,COL
 ------------------------------------------------------------------------------------------------------------------------------------
   -.1515E-01 (  1,  7,  1)  -.1335E-01 (  1,  7,  1)  -.1086E-01 (  1,  7,  2)  -.8033E-02 (  1,  7,  1)
0
0HEAD/DRAWDOWN PRINTOUT FLAG = 1     TOTAL BUDGET PRINTOUT FLAG = 1     CELL-BY-CELL FLOW TERM FLAG = 1
0OUTPUT FLAGS FOR ALL LAYERS ARE THE SAME:
   HEAD    DRAWDOWN  HEAD  DRAWDOWN
 PRINTOUT  PRINTOUT  SAVE    SAVE
 ----------------------------------
     1         0       0       0
0   CONSTANT HEAD   PERIOD  1   STEP  5   LAYER  1   ROW   1   COL   1   RATE    206.2377    
0   CONSTANT HEAD   PERIOD  1   STEP  5   LAYER  1   ROW   1   COL   2   RATE   -5.808635    
0   CONSTANT HEAD   PERIOD  1   STEP  5   LAYER  1   ROW   1   COL   3   RATE   -91.54618    
0   CONSTANT HEAD   PERIOD  1   STEP  5   LAYER  1   ROW   1   COL   4   RATE   -550.1912    
0   CONSTANT HEAD   PERIOD  1   STEP  5   LAYER  1   ROW   1   COL   5   RATE   -950.9637    
0   CONSTANT HEAD   PERIOD  1   STEP  5   LAYER  1   ROW   1   COL   6   RATE   -1279.445    
0   CONSTANT HEAD   PERIOD  1   STEP  5   LAYER  1   ROW   1   COL   7   RATE    .0000000    
0   CONSTANT HEAD   PERIOD  1   STEP  5   LAYER  1   ROW   2   COL   7   RATE   -779.4448    
0   CONSTANT HEAD   PERIOD  1   STEP  5   LAYER  1   ROW   3   COL   7   RATE   -417.1140    
0   CONSTANT HEAD   PERIOD  1   STEP  5   LAYER  1   ROW   4   COL   7   RATE   -414.8159    
0   CONSTANT HEAD   PERIOD  1   STEP  5   LAYER  1   ROW   5   COL   7   RATE    378.7761    
0   CONSTANT HEAD   PERIOD  1   STEP  5   LAYER  1   ROW   6   COL   7   RATE    726.2236    
0   CONSTANT HEAD   PERIOD  1   STEP  5   LAYER  1   ROW   7   COL   7   RATE    2158.157    
1                      HEAD IN LAYER  1 AT END OF TIME STEP  5 IN STRESS PERIOD  1
           -----------------------------------------------------------------------

           1       2       3       4       5       6       7
 ................................................................
0  1    10.00    9.00    8.00    6.00    4.00    2.00     .00
0  2     9.59    9.01    8.18    7.10    5.90    4.56    3.00
0  3     9.25    8.77    8.12    7.82    7.45    6.83    6.00
0  4     8.89    8.22    7.20    8.10    8.74    8.83    8.00
0  5     8.69    7.50    3.88    8.12   10.09   11.24   12.00
0  6     9.17    8.73    8.20    9.91   11.76   13.55   15.00
0  7     9.60    9.53    9.76   11.06   13.00   15.68   20.00
0


                              VOLUMETRIC BUDGET FOR ENTIRE MODEL AT END OF TIME STEP  5 IN STRESS PERIOD  1
                              -----------------------------------------------------------------------------
0                   CUMULATIVE VOLUMES      L**3                                     RATES FOR THIS TIME STEP      L**3/T
                    ------------------                                               ------------------------

                          IN:                                                                    IN:
                          ---                                                                    ---
                            STORAGE =    .14061E+06                                                STORAGE =    14.471    
                      CONSTANT HEAD =    .12588E+07                                          CONSTANT HEAD =    3469.4    
                              WELLS =    .00000                                                      WELLS =    .00000    
                           RECHARGE =    .32850E+07                                               RECHARGE =    9000.0    
0                          TOTAL IN =    .46844E+07                                               TOTAL IN =    12484.    
0                        OUT:                                                                   OUT:
                         ----                                                                   ----
                            STORAGE =    45723.                                                    STORAGE =    .00000    
                      CONSTANT HEAD =    .17203E+07                                          CONSTANT HEAD =    4489.3    
                              WELLS =    .29200E+07                                                  WELLS =    8000.0    
                           RECHARGE =    .00000                                                   RECHARGE =    .00000    
0                         TOTAL OUT =    .46861E+07                                              TOTAL OUT =    12489.    
0                          IN - OUT =   -1651.5                                                   IN - OUT =   -5.4619    
0               PERCENT DISCREPANCY =                -.04                              PERCENT DISCREPANCY =                -.04



0


          TIME SUMMARY AT END OF TIME STEP  5 IN STRESS PERIOD  1
                               SECONDS        MINUTES         HOURS          DAYS           YEARS
                           ---------------------------------------------------------------------------
      TIME STEP LENGTH         .121062E+08    201771.        3362.84        140.118        .383624    
    STRESS PERIOD TIME         .315360E+08    525600.        8760.00        365.000        .999316    
 TOTAL SIMULATION TIME         .315360E+08    525600.        8760.00        365.000        .999316    
1
